164
CSD_code = BOJKEQ | q = 0 | S = 0 | Stoichiometry = C52H92HfO12Si7 | MND = 8
Hf         0.78680        7.41996       34.53425
Si        -1.34181       10.61077       35.02207
Si        -1.88587        9.91187       37.90934
Si         1.03122        9.08344       37.95286
Si         1.47945       10.21357       35.10531
Si        -2.10784        7.77045       34.06088
Si        -2.39480        7.12348       36.80413
Si         0.55336        6.33825       37.30682
O         -2.05253       10.66236       36.48182
O         -0.31868        9.90083       38.33151
O          1.29066        9.07206       36.34370
O          0.16274       11.19636       35.16460
O         -2.47619        8.40292       37.79956
O          0.83705        7.53728       38.39491
O          1.45662        9.21850       33.88127
O         -1.15298        9.07842       34.51127
O         -3.06310        7.48063       35.36884
O         -0.83893        6.77664       36.49164
O          1.56367        6.35805       36.09252
O         -0.97570        6.68922       33.83992
C         -2.39935       11.69877       33.88624
H         -2.34553       11.33081       32.85677
C         -1.91581       13.15165       33.87189
H         -0.86997       13.18454       33.56612
H         -1.97671       13.55535       34.88318
C         -2.76845       13.99616       32.92793
H         -2.41903       15.03078       32.93662
H         -2.66347       13.61635       31.90914
C         -4.23729       13.94241       33.33715
H         -4.35068       14.38043       34.33084
H         -4.84099       14.52888       32.64071
C         -4.72799       12.49817       33.36686
H         -4.67143       12.07734       32.36013
H         -5.77246       12.46720       33.68490
C         -3.86846       11.66675       34.31518
H         -4.22674       10.63688       34.34857
H         -3.94478       12.06717       35.32652
C         -2.88294       10.81424       39.23572
H         -2.52642       11.84486       39.32234
C         -4.36875       10.86302       38.87265
H         -4.49187       11.36067       37.91016
H         -4.74046        9.84274       38.76741
C         -5.17269       11.59214       39.94626
H         -6.23062       11.60356       39.67498
H         -4.83272       12.62809       40.01335
C         -4.99100       10.91458       41.30062
H         -5.55729       11.44991       42.06629
H         -5.37771        9.89472       41.24798
C         -3.51298       10.87450       41.67546
H         -3.13889       11.89568       41.77708
H         -3.38655       10.37432       42.63817
C         -2.70987       10.14543       40.60131
H         -3.04943        9.11085       40.53261
H         -1.65244       10.13052       40.86766
C          2.47094        9.81556       38.94610
H          2.87962       10.68202       38.41736
C          2.01309       10.29882       40.32381
H          1.61097        9.45142       40.88048
H          1.21010       11.02611       40.20443
C          3.17578       10.91652       41.09689
H          3.54114       11.79480       40.55993
H          2.83518       11.24436       42.08138
C          4.31330        9.91135       41.25038
H          5.14869       10.37086       41.78353
H          3.96511        9.06132       41.84054
C          4.77409        9.41735       39.88254
H          5.57092        8.68032       40.00254
H          5.17741       10.25591       39.31033
C          3.60444        8.79961       39.12124
H          3.93776        8.43769       38.14678
H          3.22147        7.93871       39.67044
C          2.97294       11.33379       35.41177
H          2.81669       11.90108       36.33516
C          4.25969       10.52195       35.56004
H          4.41982        9.95522       34.64369
H          4.15347        9.80737       36.37662
C          5.45739       11.43417       35.81299
H          5.31300       11.97549       36.75108
H          6.36703       10.83713       35.90819
C          5.60892       12.43563       34.67236
H          6.45882       13.09501       34.86236
H          5.80250       11.89571       33.74343
C          4.33328       13.25845       34.52011
H          4.44044       13.95997       33.69015
H          4.16761       13.83963       35.43001
C          3.13359       12.34623       34.27644
H          2.22178       12.93720       34.18861
H          3.26831       11.80646       33.33851
C         -3.19721        8.20480       32.57649
H         -3.87123        9.02774       32.82908
C         -4.06170        7.02153       32.13946
H         -4.69576        6.70857       32.96943
H         -3.41289        6.18296       31.88405
C         -4.91934        7.39257       30.93184
H         -5.51962        6.53377       30.62421
H         -5.60383        8.19789       31.20767
C         -4.04051        7.85277       29.77274
H         -4.66339        8.13326       28.92033
H         -3.39544        7.02877       29.46142
C         -3.17516        9.03439       30.20033
H         -3.82000        9.87724       30.46066
H         -2.53494        9.34590       29.37218
C         -2.31998        8.65338       31.40590
H         -1.69357        9.49422       31.70873
H         -1.65202        7.83593       31.13691
C         -3.35860        5.69490       37.59212
H         -2.70928        5.16313       38.29462
C         -4.56677        6.19968       38.38351
H         -5.23969        6.72659       37.70586
H         -4.23332        6.91237       39.13787
C         -5.30735        5.03966       39.04430
H         -4.64467        4.54836       39.76043
H         -6.17334        5.41537       39.59367
C         -5.75820        4.02519       37.99770
H         -6.46864        4.50057       37.31851
H         -6.26579        3.18847       38.48306
C         -4.56173        3.51826       37.19830
H         -4.89696        2.81231       36.43556
H         -3.87695        2.98961       37.86533
C         -3.83004        4.68544       36.54105
H         -2.97717        4.32060       35.96586
H         -4.49717        5.19176       35.84251
C          0.34832        4.74780       38.31063
H         -0.45720        4.88591       39.03859
C         -0.01825        3.56402       37.41580
H         -0.92394        3.79285       36.85347
H          0.78581        3.40394       36.69603
C         -0.21812        2.29738       38.24434
H         -0.47435        1.46076       37.59089
H         -1.04715        2.44460       38.94035
C          1.04867        1.97420       39.03082
H          0.89460        1.07889       39.63732
H          1.86296        1.77098       38.33252
C          1.43349        3.14955       39.92442
H          0.64630        3.31357       40.66361
H          2.35513        2.91947       40.46307
C          1.61973        4.41734       39.09405
H          2.44262        4.27881       38.39167
H          1.87457        5.25686       39.74071
C          1.87674        5.99845       33.20932
C          3.09216        6.78870       33.40707
C          3.17162        7.70681       32.36302
C          2.05269        7.53510       31.50524
C          1.27324        6.48559       31.97911
C          1.65142        4.58477       33.73023
H          2.03332        3.85784       33.00811
H          0.58358        4.39796       33.87847
H          2.17357        4.44202       34.67523
C          4.14697        6.48946       34.44473
H          3.69184        6.27569       35.41126
H          4.82298        7.33295       34.55968
H          4.73793        5.62274       34.13959
C          4.23801        8.72809       32.11229
H          5.08818        8.58369       32.77300
H          3.83954        9.73166       32.26039
H          4.59053        8.65532       31.08405
C          1.80936        8.37938       30.29178
H          0.85370        8.14241       29.83349
H          2.59369        8.22572       29.54974
H          1.80740        9.43301       30.56668
C          0.20684        5.72513       31.23591
H         -0.10820        6.26859       30.34942
H         -0.65870        5.53953       31.86797
H          0.60839        4.76341       30.91001
