145
CSD_code = QALWEH | q = 0 | S = 0 | Stoichiometry = C45H79O13Si7V | MND = 8
C          5.39924        6.92662        3.41392
C          5.04643        6.57653        4.75880
C          4.22869        7.61995        5.28808
C          4.00971        8.54921        4.22693
C          4.74912        8.12306        3.09140
C          6.32532        6.11606        2.57217
H          5.92339        5.10877        2.44160
H          7.29831        6.03428        3.06091
H          6.45463        6.55714        1.58817
C          5.65328        5.46635        5.56135
H          6.57509        5.80706        6.04012
H          5.88683        4.61618        4.92308
H          4.95796        5.14170        6.33544
C          3.88435        7.77940        6.73940
H          4.79812        7.90014        7.32468
H          3.35533        6.89361        7.09606
H          3.24962        8.64771        6.90042
C          3.24241        9.82701        4.28082
H          3.90670       10.66767        4.07173
H          2.77948        9.97583        5.25331
H          2.45872        9.81373        3.52129
C          4.75215        8.86150        1.79390
H          5.41241        8.38986        1.07253
H          5.06805        9.89523        1.94528
H          3.74573        8.86937        1.37163
C          3.48022        6.97921       -2.23879
H          4.36965        6.47803       -2.62874
C          3.82311        8.46022       -2.07319
H          3.04859        8.95313       -1.48586
H          4.77865        8.60691       -1.57370
C          3.82024        8.98469       -3.50613
H          3.72057       10.06872       -3.55707
H          4.75418        8.70615       -3.99678
C          2.64142        8.26206       -4.16932
H          2.85756        8.03351       -5.21259
H          1.75292        8.89322       -4.14832
C          2.40754        6.98286       -3.34123
H          2.47658        6.08304       -3.94974
H          1.41515        7.00165       -2.89247
C         -0.73604        8.26179       -1.16555
H         -0.70528        7.80673       -2.16065
C         -0.09207        9.64673       -1.25863
H          0.05670       10.03632       -0.25143
H          0.87192        9.62179       -1.76204
C         -1.12035       10.49930       -2.01352
H         -1.11202       11.53164       -1.66536
H         -0.89123       10.50935       -3.07969
C         -2.48369        9.82468       -1.76877
H         -2.91122        9.48667       -2.71319
H         -3.19657       10.50802       -1.30904
C         -2.19339        8.62341       -0.86145
H         -2.87265        7.79313       -1.04142
H         -2.27419        8.91005        0.18670
C         -2.38367        3.41716       -0.50860
H         -2.51458        2.37221       -0.22272
C         -2.22642        3.50774       -2.03827
H         -1.18240        3.51067       -2.34275
H         -2.72511        2.66447       -2.52164
C         -2.94078        4.80211       -2.40199
H         -2.31941        5.64743       -2.11007
H         -3.17277        4.87507       -3.46464
C         -4.18886        4.74693       -1.52797
H         -4.67523        5.71614       -1.42455
H         -4.90831        4.05109       -1.96449
C         -3.67624        4.20832       -0.18827
H         -4.41872        3.57723        0.29840
H         -3.45225        5.03362        0.48562
C          2.48464        1.75999       -1.30515
H          3.55053        1.79296       -1.53597
C          1.68701        1.69890       -2.62223
H          1.33041        2.68021       -2.92706
H          2.31035        1.29658       -3.42381
C          0.55075        0.72949       -2.32300
H         -0.19644        1.22602       -1.70509
H          0.07414        0.34470       -3.22455
C          1.25075       -0.35504       -1.51244
H          1.85222       -0.97895       -2.17686
H          0.55412       -0.99813       -0.97646
C          2.15443        0.43947       -0.56719
H          3.05745       -0.11236       -0.30873
H          1.61923        0.65420        0.35689
C          3.62743        2.39647        3.74914
H          3.77930        2.81455        4.75154
C          2.87177        1.07227        3.88934
H          1.99624        1.16347        4.52788
H          2.54631        0.74219        2.90273
C          3.91201        0.10005        4.45803
H          3.86101        0.09279        5.54707
H          3.73758       -0.91765        4.11136
C          5.27999        0.63564        3.99478
H          5.80904       -0.08914        3.37730
H          5.90991        0.85719        4.85691
C          4.97980        1.92004        3.21048
H          4.87614        1.70037        2.14811
H          5.76521        2.66593        3.32798
C         -0.99098        3.55221        4.85171
H         -1.92935        4.02201        5.15944
C         -1.24004        2.04978        4.68998
H         -2.14679        1.84711        4.12390
H         -0.40307        1.60556        4.15251
C         -1.30603        1.50200        6.12366
H         -2.34273        1.38769        6.44077
H         -0.83270        0.52290        6.19109
C         -0.58826        2.53952        7.00798
H          0.19768        2.08542        7.61028
H         -1.30026        3.00624        7.68958
C         -0.02693        3.58702        6.04207
H          0.04604        4.57679        6.48853
H          0.97009        3.30618        5.70230
C         -0.39449        8.69526        4.27326
H         -0.06381        9.69750        3.99303
C         -1.93988        8.67351        4.36767
H         -2.37481        9.60390        4.00440
H         -2.33882        7.86021        3.76419
C         -2.26448        8.42949        5.84310
H         -2.32960        9.37862        6.37963
H         -3.20421        7.89607        5.97632
C         -1.06005        7.63940        6.34127
H         -1.09976        6.62317        5.95258
H         -0.99139        7.60996        7.42872
C          0.11031        8.37118        5.69508
H          1.01603        7.75919        5.67403
H          0.31194        9.29423        6.24574
O          4.11346        6.16494        0.43104
H          3.92985        5.78657        1.31716
O          2.46206        4.62549       -1.05193
O          1.64335        6.95009       -0.02175
O         -0.69456        5.66452       -0.05874
O          0.43122        3.25953       -0.02306
O         -1.14457        4.01440        1.99029
O          2.85130        3.16602        1.12263
O          1.20354        3.76579        3.11871
O          3.45820        5.12408        2.78116
O          1.88740        7.38431        3.05965
O         -0.31175        5.98083        3.53426
O         -0.26066        7.76665        1.55185
O          2.37748        5.77935        5.07173
Si         2.91570        6.13742       -0.63930
Si         0.04012        7.09511        0.10939
Si        -0.87382        4.12100        0.39663
Si         2.03216        3.27854       -0.26845
Si         2.75054        3.69031        2.65679
Si        -0.27221        4.38589        3.31073
Si         0.28721        7.41081        3.03963
V          3.06165        6.44384        3.88928
