113
CSD_code = UFINIH | q = 0 | S = 0 | Stoichiometry = C35H66CrO4Si7 | MND = 9
Si        -1.24110        3.89342        4.33639
O         -2.28341        4.12425        5.59348
H         -2.53743        3.40579        6.16962
C          0.54361        3.69338        5.02958
H          1.06433        4.61804        5.27678
C          1.42947        2.82545        4.20062
H          2.48527        3.08704        4.18459
C          1.00322        1.84895        3.33825
H          1.73322        1.34396        2.71305
C         -0.35748        1.40443        3.26236
H         -0.54454        0.51282        2.66652
C         -1.39766        2.06718        3.86881
H         -2.38490        1.63648        3.73250
Cr         0.27414        1.31183        5.38238
H          0.37885        3.17714        6.01866
C          1.60641        0.98768        6.59421
C          0.35570       -0.49849        5.32825
C         -0.95258        0.87279        6.65621
O          2.41307        0.62743        7.33770
O          0.42933       -1.64940        5.41119
O         -1.72419        0.50930        7.43855
C         -1.51933        5.34913        3.16113
C         -1.41341        6.65885        3.66244
C         -1.72650        7.73860        2.84986
H         -1.64705        8.73274        3.25810
C         -2.14078        7.57317        1.53631
C         -2.21097        6.27959        1.04801
H         -2.51668        6.11542        0.02759
C         -1.90483        5.17277        1.82567
C         -0.96787        6.93409        5.05953
H         -0.78487        5.97806        5.54741
C         -2.49503        8.72337        0.65476
H         -2.67131        8.30764       -0.34365
C         -1.99198        3.83308        1.17323
H         -1.68571        3.08224        1.90028
Si         0.74631        7.80588        5.08911
Si        -2.42369        7.65040        6.10199
Si        -1.01542        9.93036        0.42159
Si        -4.20696        9.44931        1.15688
Si        -0.65300        3.69881       -0.20046
Si        -3.83018        3.38499        0.82853
C          1.91492        6.87331        3.88675
H          1.35344        6.26784        3.18129
H          2.60466        6.21853        4.41130
H          2.51811        7.56787        3.30988
C          1.42639        7.66406        6.86866
H          2.47313        7.94869        6.90931
H          1.34692        6.65444        7.25946
H          0.88694        8.31802        7.54559
C          0.80203        9.64506        4.58891
H          0.08963       10.24500        5.14290
H          0.60663        9.78049        3.53093
H          1.79022       10.05000        4.78987
C         -2.42897        9.55552        6.24386
H         -2.34967       10.04994        5.28248
H         -1.61028        9.90254        6.86603
H         -3.35151        9.89351        6.70587
C         -2.26030        6.94616        7.86809
H         -3.05013        7.31659        8.51373
H         -1.31335        7.21617        8.32341
H         -2.32497        5.86348        7.85835
C         -4.06023        7.03916        5.33892
H         -4.92222        7.36258        5.91440
H         -4.06537        5.95479        5.30761
H         -4.18764        7.39205        4.32049
C          0.60428        8.93356        0.59668
H          0.69972        8.20842       -0.20628
H          0.63276        8.38434        1.53199
H          1.47786        9.57754        0.56021
C         -1.01730       11.41308        1.62282
H         -0.08618       11.96702        1.54799
H         -1.13337       11.11118        2.65753
H         -1.82320       12.10100        1.38754
C         -1.09564       10.62844       -1.35427
H         -2.01767       11.17246       -1.52796
H         -1.03720        9.83854       -2.09657
H         -0.27339       11.31179       -1.54167
C         -4.27062       10.28585        2.86703
H         -5.26837       10.67135        3.05642
H         -3.58305       11.12089        2.93964
H         -4.03646        9.58775        3.66267
C         -4.73617       10.72540       -0.16036
H         -4.65329       10.32455       -1.16533
H         -4.12728       11.62202       -0.11217
H         -5.76876       11.02537       -0.01340
C         -5.44688        7.99590        1.15757
H         -6.40263        8.28519        1.58340
H         -5.06660        7.16095        1.73841
H         -5.63659        7.63326        0.15186
C          0.95711        4.39010        0.56286
H          1.20737        3.87814        1.48742
H          0.84967        5.44585        0.79322
H          1.80259        4.28468       -0.11023
C         -0.40419        1.85985       -0.64419
H          0.47254        1.72895       -1.27055
H         -1.25381        1.46212       -1.18809
H         -0.26718        1.24780        0.24051
C         -0.98739        4.65246       -1.81940
H         -0.94468        5.72624       -1.67102
H         -1.95679        4.41202       -2.24223
H         -0.23796        4.39776       -2.56313
C         -3.94948        1.50686        0.50706
H         -3.36636        0.93629        1.22222
H         -3.59387        1.24770       -0.48436
H         -4.97775        1.16746        0.58056
C         -4.64559        4.28802       -0.64052
H         -5.66921        3.94710       -0.76455
H         -4.12662        4.09759       -1.57410
H         -4.67763        5.36090       -0.48715
C         -4.79380        3.82190        2.41830
H         -4.65779        4.86728        2.67737
H         -4.44890        3.23790        3.26579
H         -5.85911        3.64431        2.30765
