88
CSD_code = ABUGOU | q = 0 | S = 0 | Stoichiometry = C29H51O2P3RuSi2 | MND = 6
Ru         0.35745        2.98080        2.31868
Si         1.95679        4.45373        1.06266
Si         2.12432        2.37509        3.99796
P         -0.41200        4.77310        3.62131
P         -0.99157        1.33909        3.45760
P         -1.14974        3.40899        0.48943
O          1.36159        0.70125        0.65246
O          3.73480        2.37305        1.69763
C          1.01887        1.59200        1.30257
C          1.73613        1.69795        5.79739
H          2.66919        1.38409        6.25632
H          1.06651        0.84531        5.81798
H          1.32125        2.46867        6.43942
C          3.52704        3.58726        4.57540
H          3.92928        3.26215        5.52929
H          3.19315        4.61160        4.69092
H          4.33900        3.58850        3.86211
C          1.38949        5.89839       -0.13680
H          0.95568        6.73075        0.40817
H          0.68418        5.59176       -0.90134
H          2.26595        6.28721       -0.64708
C          3.36426        5.48396        1.91449
H          4.21918        4.85565        2.11924
H          3.06047        5.93769        2.85077
H          3.69256        6.27962        1.25373
C          3.21219        0.89265        3.40388
C          3.35558       -0.36094        3.97667
H          2.85515       -0.59085        4.90582
C          4.13267       -1.33496        3.37185
H          4.22492       -2.31093        3.82824
C          4.79755       -1.07280        2.18700
H          5.39463       -1.85164        1.73905
C          4.70623        0.17719        1.59107
C          3.91109        1.12647        2.22506
C          3.01396        3.46442       -0.21685
C          3.05327        3.59920       -1.59545
H          2.47612        4.37334       -2.07936
C          3.82303        2.74897       -2.37191
H          3.83362        2.86283       -3.44718
C          4.58365        1.75249       -1.78611
H          5.17164        1.10436       -2.41694
C          4.59829        1.59787       -0.40708
C          3.80817        2.46739        0.33802
C          5.46396        0.60177        0.34498
C          5.87037       -0.58889       -0.52342
H          4.99197       -1.13369       -0.86298
H          6.51217       -1.26461        0.03621
H          6.43486       -0.25164       -1.38904
C          6.73510        1.34486        0.80470
H          7.29298        1.70419       -0.05831
H          7.37033        0.67848        1.38570
H          6.47306        2.19919        1.42555
C         -2.24350        4.87630        3.83193
H         -2.60402        3.97240        4.31909
H         -2.71752        4.95340        2.85505
H         -2.51201        5.74418        4.43449
C          0.06765        4.94601        5.38612
H         -0.39335        5.83664        5.81408
H          1.15016        5.02355        5.45100
H         -0.24979        4.07281        5.94904
C         -0.10681        6.51678        3.12958
H         -0.53123        7.19350        3.87179
H         -0.55908        6.71798        2.16247
H          0.96521        6.68028        3.05243
C         -0.18384       -0.30873        3.43906
H          0.84062       -0.24542        3.79221
H         -0.16135       -0.66147        2.40716
H         -0.74892       -1.01845        4.04463
C         -1.50844        1.48565        5.22555
H         -1.64969        0.49029        5.64625
H         -2.45524        2.02273        5.27574
H         -0.76918        2.01915        5.80957
C         -2.64169        0.72696        2.88645
H         -2.55696        0.28890        1.89545
H         -3.37230        1.53285        2.86729
H         -2.98295       -0.04155        3.58118
C         -0.41685        2.90424       -1.11575
H         -1.06208        3.20639       -1.94162
H         -0.32450        1.81743       -1.11670
H          0.57627        3.32300       -1.24276
C         -1.82668        5.07869        0.08399
H         -1.10128        5.85659        0.28667
H         -2.71640        5.25742        0.68722
H         -2.10600        5.11185       -0.96902
C         -2.75831        2.53638        0.22136
H         -3.19137        2.88966       -0.71532
H         -3.45542        2.74202        1.03059
H         -2.59211        1.46463        0.14702
