57
CSD_code = AHABAN | q = 0 | S = 0 | Stoichiometry = C14H34Cl3NO2Si2Zr | MND = 6
C         -0.52801        8.10929        2.64459
H          0.09053        8.59335        3.39400
H         -1.42907        7.76774        3.14498
H         -0.83252        8.85210        1.91151
C          0.60895        5.13747        3.01160
H          0.15229        4.22553        2.63710
H          0.17759        5.34080        3.98768
H          1.67208        4.93710        3.15890
C         -0.95153        6.05158        0.51361
H         -1.06631        6.78244       -0.27803
H         -1.91759        5.93039        0.99170
H         -0.69114        5.10568        0.05733
C          2.89093        8.44920       -1.29052
H          1.95614        8.98678       -1.42333
H          3.28173        8.23385       -2.27952
H          3.59747        9.11056       -0.80043
C          1.64894        5.67619       -1.50664
H          1.41125        4.72282       -1.04979
H          2.23215        5.47652       -2.39894
H          0.72191        6.13855       -1.81967
C          4.31891        5.89857       -0.12385
H          5.03607        6.45917        0.47293
H          4.77141        5.73507       -1.09833
H          4.19013        4.92347        0.34211
C          2.51934       10.54493        3.86681
H          3.46219       11.09568        3.72653
H          2.52022       10.00933        4.82106
C          1.31947       11.47459        3.68015
H          1.49814       12.46302        4.09589
H          0.44446       11.04352        4.16495
C          1.13630       11.49657        2.15346
H          0.09236       11.35417        1.88403
H          1.47378       12.43812        1.72437
C          2.00969       10.32961        1.65594
H          1.49424        9.63724        0.98339
H          2.92642       10.69976        1.17552
C          5.04887        7.35444        5.49498
H          5.86477        6.68031        5.19960
H          4.15563        6.77168        5.72559
C          5.48452        8.28008        6.63508
H          6.19088        7.78879        7.29933
H          4.61575        8.58658        7.21574
C          6.10064        9.48020        5.89686
H          5.61015       10.40899        6.18437
H          7.16578        9.58188        6.09188
C          5.84198        9.15871        4.41656
H          5.57233       10.02902        3.81725
H          6.72033        8.67900        3.96343
Cl         1.95832        7.47594        4.77666
Cl         4.22992        5.54889        3.06706
Cl         4.85176        8.81023        1.54525
N          1.87344        7.14606        1.19424
O          2.36954        9.58252        2.82309
O          4.74985        8.23705        4.40645
Si         0.34354        6.60920        1.80217
Si         2.63885        6.80370       -0.32409
Zr         3.15510        7.58669        2.71040
