56
CSD_code = AMAXIW | q = 0 | S = 0 | Stoichiometry = C17H29MoO6PSi2 | MND = 6
C         -1.54886        3.53074        4.80351
H         -2.13254        4.44956        4.85942
C         -2.19779        2.37047        5.53803
C         -1.28305        1.15017        5.56829
H         -0.33630        1.40059        6.04176
H         -1.09027        0.79061        4.55682
H         -1.74980        0.34709        6.13416
C         -2.47446        2.83584        6.97395
H         -2.91433        2.02842        7.55425
H         -3.16158        3.67939        6.98037
H         -1.54624        3.14072        7.45120
C         -3.51529        2.01641        4.84411
H         -3.32667        1.59612        3.85832
H         -4.14478        2.89661        4.73118
H         -4.05730        1.27822        5.42992
C         -0.51948        5.16167        2.69682
H          0.24398        5.13038        1.90978
C          1.87420        6.18810        4.34565
H          2.53630        6.23886        3.48531
H          1.95268        5.18861        4.76614
H          2.24974        6.88735        5.08683
C          0.03031        8.18170        2.83318
H         -0.98332        8.48971        2.60142
H          0.56590        8.07279        1.89642
H          0.49867        8.98965        3.38398
C         -0.97704        6.86672        5.43269
H         -0.67421        7.79991        5.89877
H         -0.82959        6.07731        6.16178
H         -2.03913        6.94225        5.22289
C         -1.86755        6.28448        0.14253
H         -1.11694        5.80519       -0.47868
H         -1.52606        7.29207        0.35331
H         -2.77577        6.36252       -0.44607
C         -3.54475        6.15416        2.76668
H         -3.23921        7.14612        3.08174
H         -3.81971        5.59020        3.65229
H         -4.44111        6.26659        2.16524
C         -2.78812        3.54718        1.26959
H         -2.74972        2.87590        2.12410
H         -2.17658        3.11248        0.48325
H         -3.81276        3.56208        0.91001
C          2.15382        0.71274        1.25207
C          2.52420        3.14350        2.46861
C          0.56259        2.82265        0.57879
C         -0.50320        0.67779        1.98937
C          1.58131        1.02848        3.92449
Mo         1.00138        1.91695        2.26341
O         -0.15002        3.78379        5.07139
O          2.83923        0.02239        0.65625
O          3.44008        3.81972        2.52564
O          0.39714        3.34514       -0.42383
O         -1.36351       -0.04393        1.78632
O          2.01266        0.51561        4.84480
P         -0.36399        3.51896        3.47454
Si         0.07220        6.57803        3.86400
Si        -2.18515        5.29485        1.73914
