90
CSD_code = AMUKEZ | q = 0 | S = 0 | Stoichiometry = C35H49MoNO2Si2 | MND = 10
Mo         1.42617        3.60101        3.40991
Si         4.33972        6.01108        4.25607
Si         1.05170        3.66621        6.01879
H          0.97541        5.02616        3.95167
O          1.67954        0.90595        4.87429
O          3.85966        4.53916        6.77415
N          3.46033        4.62113        3.73619
C          1.62097        1.96946        4.40288
C          3.47641        3.42725        3.34359
C          4.65077        2.49391        3.22836
C          4.28399        1.25059        2.41760
H          3.40474        0.77031        2.83627
H          5.10567        0.53696        2.43788
H          4.09060        1.51297        1.38128
C          5.03012        2.06264        4.65337
H          5.35628        2.91970        5.23472
H          5.84725        1.34436        4.61105
H          4.18583        1.59820        5.15806
C          5.85030        3.19334        2.57959
H          5.57997        3.60173        1.60771
H          6.66127        2.48073        2.44045
H          6.20588        3.99904        3.21553
C          3.11332        7.32793        4.87940
H          2.09456        7.02286        4.66489
H          3.28705        8.28690        4.40047
H          3.19528        7.47913        5.95052
C          5.21745        6.76023        2.72411
H          6.00909        6.13667        2.32389
H          5.65143        7.72250        2.97623
H          4.49877        6.92953        1.92798
C          5.61005        5.56316        5.58942
C          6.95338        5.89215        5.48333
H          7.29298        6.44283        4.61952
C          7.85685        5.51485        6.45843
H          8.90248        5.76618        6.35921
C          7.41883        4.81986        7.57123
H          8.13712        4.54211        8.32525
C          6.07991        4.49246        7.72965
C          5.18675        4.85998        6.72154
C          5.52045        3.83002        8.97145
C          4.97185        4.94729        9.88458
H          4.52223        4.51358       10.77550
H          4.21237        5.52766        9.36496
H          5.77604        5.61747       10.18313
C          6.57855        3.04151        9.74372
H          6.99198        2.24414        9.13001
H          6.14580        2.61029       10.64212
H          7.38348        3.69804       10.06332
C          3.50122        3.45369        7.54303
C          4.33937        2.97494        8.55061
C          3.98666        1.79445        9.18920
H          4.62054        1.37906        9.95568
C          2.81505        1.13866        8.86115
H          2.56106        0.21373        9.35808
C          1.95424        1.69017        7.93092
H          1.01881        1.20123        7.71396
C          2.27215        2.85875        7.25469
C         -0.65392        2.84096        6.36381
H         -0.88453        2.83023        7.42444
H         -0.69627        1.81853        6.00373
H         -1.44539        3.39565        5.86880
C          0.78443        5.38896        6.83227
H          0.08594        5.99039        6.26193
H          1.71449        5.93540        6.90796
H          0.38271        5.27171        7.83497
C          0.73031        2.34431        1.60456
C          1.37250        3.48429        1.04342
C          0.64992        4.63641        1.44204
C         -0.48628        4.21130        2.19534
C         -0.43106        2.79866        2.32292
C          0.93910        0.90711        1.22695
H          0.15157        0.59278        0.53725
H          0.89575        0.25832        2.10067
H          1.89725        0.75329        0.73786
C          2.47646        3.51225        0.02733
H          2.85294        2.51321       -0.17893
H          3.30892        4.13629        0.35584
H          2.09628        3.92694       -0.90930
C          0.90219        6.02153        0.92698
H          0.42307        6.15240       -0.04739
H          1.96970        6.20255        0.80877
H          0.50391        6.77390        1.60479
C         -1.64673        5.06801        2.60132
H         -1.35116        6.10857        2.71547
H         -2.07210        4.72964        3.54480
H         -2.42480        5.01470        1.83548
C         -1.54750        1.90711        2.78464
H         -2.19063        1.64756        1.93899
H         -2.15809        2.39985        3.53875
H         -1.15807        0.98352        3.21024
