78
CSD_code = ASOKAV | q = 0 | S = 0 | Stoichiometry = C32H40O3Si2W | MND = 9
W          1.68217        3.08202        7.69881
Si         0.51508        2.15197        9.87369
Si        -2.67885        2.86457        6.62332
O         -0.67006        0.99876        9.82490
O          0.79588        6.02408        7.15709
O          2.62276        5.27236        9.71885
C         -0.26843        2.68615        7.90601
C         -1.45609        2.15214        7.89074
C         -1.81033        1.18496        9.01054
C         -1.67541        3.36913        5.08228
H         -2.18804        4.14071        4.51673
H         -1.50673        2.53213        4.41193
H         -0.70820        3.76456        5.38515
C         -3.45608        4.43303        7.38644
H         -2.68844        5.17636        7.58019
H         -3.95996        4.23169        8.32645
H         -4.18215        4.87755        6.71235
C         -4.05785        1.65366        6.08939
H         -4.71586        1.38971        6.91118
H         -3.66159        0.73528        5.66739
H         -4.67119        2.12174        5.32572
C         -2.18158       -0.18804        8.44817
H         -1.38577       -0.55088        7.80101
H         -3.10485       -0.13678        7.88256
H         -2.30155       -0.88792        9.27185
C         -2.93885        1.74935        9.87093
H         -3.11182        1.08694       10.71578
H         -3.85191        1.84002        9.29035
H         -2.64886        2.72584       10.25055
C          1.84619        1.23408       10.86556
C          1.74239       -0.11651       11.17366
H          0.89282       -0.67031       10.80624
C          2.70131       -0.74683       11.94793
H          2.60584       -1.79917       12.17609
C          3.78068       -0.02868       12.43415
H          4.53055       -0.51739       13.03952
C          3.89012        1.32210       12.14564
H          4.72557        1.89017       12.52911
C          2.93055        1.94352       11.36620
H          3.01582        2.99748       11.14797
C         -0.06688        3.60169       10.98577
C          0.06021        3.53821       12.36941
H          0.50714        2.66119       12.81493
C         -0.36778        4.57646       13.17800
H         -0.25442        4.50735       14.25062
C         -0.93681        5.70454       12.61287
H         -1.26839        6.51892       13.24084
C         -1.07453        5.78530       11.23715
H         -1.51413        6.66414       10.78789
C         -0.64161        4.74487       10.43536
H         -0.74565        4.81684        9.35941
C          1.10894        4.92422        7.36072
C          2.25135        4.42416        9.01571
C          1.90845        1.43640        6.04374
C          2.56732        0.96393        7.21685
C          3.64388        1.85310        7.51424
C          3.64541        2.88430        6.52713
C          2.57483        2.62100        5.61002
C          0.86848        0.65529        5.29198
H          1.26584       -0.32580        5.02293
H          0.58340        1.16846        4.37699
H         -0.03096        0.50466        5.89174
C          2.32397       -0.38716        7.82226
H          1.25848       -0.58176        7.94086
H          2.79588       -0.47808        8.79794
H          2.73814       -1.16016        7.16921
C          4.73986        1.61522        8.51123
H          4.40470        0.97828        9.32732
H          5.09629        2.55124        8.93972
H          5.58553        1.12621        8.02121
C          4.73053        3.90371        6.32905
H          5.52372        3.49156        5.70032
H          5.17199        4.19655        7.28062
H          4.34576        4.79982        5.84355
C          2.35731        3.34203        4.31114
H          3.01818        2.93214        3.54357
H          2.57594        4.40436        4.41125
H          1.32993        3.24063        3.96672
