84
CSD_code = ASUTIR | q = 0 | S = 0 | Stoichiometry = C25H52FeN2O2Si2 | MND = 4
Fe         7.80972        7.19461       -2.77875
Si         6.77454       10.02122       -2.39010
Si         7.20520        4.67495       -0.75300
O         10.98851        8.09562       -5.26897
O          8.50811        4.18500       -5.54285
N          9.80257        7.73545       -3.40232
N          7.81324        5.82699       -4.16815
C          7.40269        8.57229       -1.37960
H          6.58561        8.10977       -0.81773
H          8.13479        8.87995       -0.64225
C          8.44518        5.95814       -1.31253
H          9.34331        5.48280       -1.70777
H          8.74687        6.55995       -0.46014
C          7.56388       11.71035       -1.93805
H          8.64796       11.67958       -1.99645
H          7.30344       11.99455       -0.92377
H          7.22337       12.50314       -2.59796
C          4.87883       10.28959       -2.28257
H          4.59863       10.61649       -1.28664
H          4.33284        9.37420       -2.48842
H          4.53404       11.04461       -2.98328
C          7.16753        9.73275       -4.26073
H          7.67164        8.77216       -4.40174
H          7.82252       10.50278       -4.65738
H          6.27074        9.72987       -4.87153
C          5.40740        5.31750       -0.98201
H          5.41243        6.22278       -1.58355
H          4.96252        5.56972       -0.02444
H          4.75284        4.59270       -1.45921
C          7.42217        3.01476       -1.70032
H          8.05228        3.15179       -2.57238
H          6.47782        2.59114       -2.03099
H          7.90502        2.27338       -1.07173
C          7.37089        4.23627        1.10682
H          7.23475        5.11890        1.72349
H          8.35275        3.83053        1.33084
H          6.63288        3.50114        1.41568
C         10.37160        9.07607       -3.24148
H          9.58030        9.75893       -2.93740
C         11.48533        9.11207       -2.15885
C         12.59566        8.10640       -2.46988
H         12.20551        7.09465       -2.40599
H         13.39842        8.21085       -1.74343
H         13.01799        8.25691       -3.46073
C         12.06716       10.52786       -2.07974
H         11.27192       11.26184       -1.97186
H         12.65368       10.78457       -2.95849
H         12.71871       10.60286       -1.21242
C         10.87181        8.76258       -0.80542
H         10.30094        7.84525       -0.89298
H         10.20714        9.55626       -0.47766
H         11.65322        8.63633       -0.05967
C         10.89882        9.37723       -4.65872
H         10.19771        9.98911       -5.23803
H         11.88223        9.84245       -4.68617
C         10.27778        7.25233       -4.48651
C         10.17962        5.83402       -4.97077
C          8.77961        5.31647       -4.83873
C          7.15272        3.85877       -5.28094
H          7.11915        2.92597       -4.71000
H          6.65090        3.70547       -6.23704
C          6.60484        5.05540       -4.47127
H          6.16182        4.72359       -3.53110
C          5.55514        5.90752       -5.23274
C          4.40059        5.01916       -5.71175
H          4.04448        4.38521       -4.90297
H          4.68831        4.38361       -6.54494
H          3.57587        5.64549       -6.04445
C          6.20325        6.61042       -6.42739
H          6.95479        7.31829       -6.08596
H          5.45107        7.15190       -6.99672
H          6.68301        5.89609       -7.09319
C          4.97805        6.94741       -4.26911
H          5.77723        7.44239       -3.70682
H          4.29943        6.47133       -3.56562
H          4.42292        7.70506       -4.81754
C         11.11599        4.95454       -4.11978
H         10.83345        5.02213       -3.07275
H         12.14615        5.28141       -4.23887
H         11.03281        3.92063       -4.44495
C         10.60018        5.74949       -6.44467
H          9.95823        6.37375       -7.06139
H         10.52257        4.72120       -6.78565
H         11.62497        6.09072       -6.55880
