55
CSD_code = AYUMAK | q = 0 | S = 0 | Stoichiometry = C18H24BO8PSi2W | MND = 6
W          3.60046        5.91012        8.40813
P          5.03916        7.82724        8.92760
H          5.91753        8.20473        7.88924
Si         4.10827        9.43219       11.32874
Si         5.22335       10.85548        8.54980
O          6.21885        7.72400       10.06862
O          7.67647        6.44515       11.50337
O          6.73949        5.40650        9.69367
O          1.74958        3.52481        7.58188
O          5.98722        4.47323        6.95791
O          4.29934        4.37474       11.05839
O          1.09498        7.38432        9.58727
O          3.01793        7.49376        5.76067
C          8.07140        5.13161       11.48491
C          7.49571        4.49582       10.37927
C          7.71308        3.16119       10.11473
H          7.26083        2.68049        9.26306
C          8.53596        2.47670       10.99892
H          8.73075        1.42918       10.82869
C          9.10958        3.10620       12.09405
H          9.74227        2.53818       12.75845
C          8.88866        4.45102       12.36134
H          9.32874        4.94331       13.21257
C          4.30802        9.40319        9.41022
H          3.29894        9.37196        8.98985
C          3.78173        7.71540       12.09245
H          3.07731        7.13451       11.50262
H          3.36805        7.80928       13.09266
H          4.70000        7.14166       12.17118
C          5.65111       10.17981       12.16216
H          6.53710        9.60001       11.92558
H          5.53370       10.17897       13.24139
H          5.82699       11.20477       11.85375
C          2.56939       10.50875       11.67259
H          2.65845       11.49759       11.23807
H          2.42541       10.63224       12.74022
H          1.66828       10.05403       11.27324
C          7.10045       10.76203        8.86897
H          7.38455       11.32234        9.75351
H          7.66329       11.16616        8.03287
H          7.41818        9.73457        9.01867
C          4.53094       12.52592        9.15274
H          3.46431       12.60313        8.97078
H          5.01049       13.34112        8.62178
H          4.69800       12.68112       10.21275
C          4.84163       10.70108        6.68312
H          5.11943        9.72591        6.29213
H          5.37393       11.44995        6.10462
H          3.78124       10.83518        6.48817
C          2.42235        4.39815        7.88830
C          5.14322        5.00468        7.51087
C          4.03291        4.94916       10.10721
C          2.02710        6.83552        9.21223
C          3.21985        6.89447        6.71430
B          6.85621        6.58838       10.40722
