87
CSD_code = BEZNAW | q = 0 | S = 0 | Stoichiometry = C32H50Cl2Si2Zr | MND = 12
Zr        11.20482        3.52029        5.65437
Cl         9.04054        3.06020        6.39542
Cl        11.76674        1.33362        5.05130
Si        11.30564        6.70567        5.91340
Si        13.93212        4.79209        4.78906
C         12.09581        5.36136        6.98136
C         13.18243        4.55243        6.51437
C         13.10404        3.30484        7.19741
H         13.82869        2.50332        7.11311
C         12.00294        3.33982        8.09117
C         11.38190        4.59999        7.93768
H         10.54881        4.95253        8.53414
C         11.11688        5.53595        4.43183
C         12.24219        4.77205        3.92099
C         11.71196        3.73586        3.10331
C         10.30511        3.82690        3.13040
H          9.62713        3.21251        2.55627
C          9.93033        4.92630        3.93506
C          9.68880        7.22120        6.79333
H          9.92888        7.75235        7.70929
H          9.07564        6.36465        7.06008
H          9.09434        7.88965        6.18106
C         12.32067        8.28736        5.57196
H         12.38616        8.49981        4.51091
H         13.32827        8.20871        5.96007
H         11.85074        9.14022        6.04838
C         14.98739        6.35227        4.47124
H         15.37083        6.76158        5.39866
H         14.42807        7.12998        3.96672
H         15.83978        6.10207        3.84959
C         15.03597        3.25874        4.49477
H         15.43470        3.24097        3.48681
H         14.49575        2.33086        4.66700
H         15.88408        3.28077        5.17273
C         11.55541        2.28459        9.07298
H         10.55786        2.57967        9.42883
C         11.39419        0.94379        8.34719
H         10.65869        1.05845        7.54445
H         11.02799        0.17498        9.02223
H         12.33178        0.60587        7.90928
C         12.46309        2.23143       10.33659
C         12.44495        3.61521       10.99615
H         13.07006        3.61614       11.88631
H         11.43336        3.88739       11.28982
H         12.82134        4.37240       10.31286
C         11.90670        1.21033       11.33409
H         12.05409        0.19301       10.98181
H         10.84385        1.37108       11.50182
H         12.41966        1.30961       12.28851
C         13.90966        1.86523       10.00312
H         14.48242        1.76549       10.92292
H         14.37326        2.64122        9.40054
H         13.96381        0.91995        9.46979
C         12.52390        2.82782        2.21695
H         13.27396        2.30405        2.81853
C         13.26229        3.66577        1.16169
H         12.52711        4.17323        0.53302
H         13.86477        4.43067        1.65665
C         14.14929        2.77594        0.29730
H         14.91165        2.30662        0.92401
H         14.66078        3.37986       -0.45564
C         13.31991        1.68994       -0.38145
H         12.60183        2.15581       -1.06049
H         13.96827        1.04163       -0.97477
C         12.56876        0.86530        0.65964
H         11.96084        0.10591        0.16333
H         13.28499        0.35028        1.30362
C         11.67835        1.76346        1.51339
H         11.15446        1.16165        2.25949
H         10.93816        2.24477        0.87014
C          8.53642        5.48225        4.07423
H          8.33029        5.68902        5.13079
C          8.42821        6.80476        3.29914
H          9.20341        7.49484        3.63947
H          8.59794        6.60801        2.23811
C          7.04874        7.42590        3.49224
H          6.97873        8.35826        2.92740
H          6.90347        7.66347        4.54898
C          5.95692        6.46043        3.04025
H          4.97359        6.90269        3.21362
H          6.05702        6.27924        1.96743
C          6.07259        5.13544        3.78837
H          5.91134        5.30264        4.85568
H          5.30258        4.44409        3.43986
C          7.45332        4.52135        3.57614
H          7.59339        4.32619        2.51060
H          7.52511        3.57426        4.11635
