92
CSD_code = BIQPUO | q = 0 | S = 0 | Stoichiometry = C35H53NSi2Zr | MND = 13
C         16.47967       14.61109        5.90801
C         15.97321       14.38613        4.73544
C         18.61329       15.14758        8.26090
H         18.60987       16.23018        8.18540
H         19.61087       14.85584        8.57758
H         17.93297       14.86704        9.05769
C         19.56025       14.90123        5.36836
H         19.28722       14.68442        4.34135
H         20.51221       14.41669        5.56517
H         19.71986       15.97169        5.44667
C         18.53452       12.41672        6.87073
H         18.11008       12.05684        7.80319
H         19.60212       12.22165        6.91309
H         18.12457       11.81676        6.06617
C         17.19664       15.02963        1.94591
H         16.46251       15.76434        1.63301
H         17.61660       14.58560        1.04808
H         17.99661       15.56031        2.45276
C         17.65257       12.21889        3.15515
H         18.57418       12.50311        3.65058
H         17.90943       11.86408        2.16093
H         17.23302       11.37852        3.70027
C         14.86740       12.98928        2.15893
H         14.15573       12.55507        2.85487
H         15.14562       12.21538        1.44952
H         14.34666       13.76417        1.60579
C         12.62497       15.08184        3.26474
C         11.91160       15.03808        2.08546
C         11.91361       16.13732        1.19207
H         12.49719       17.01373        1.43362
C         11.18769       16.08460        0.02747
H         11.20122       16.93049       -0.64517
C         10.43870       14.95783       -0.29662
H          9.87126       14.92706       -1.21373
C         10.43126       13.86959        0.57066
H          9.85535       12.98997        0.32027
C         11.14794       13.89592        1.74159
H         11.14401       13.04629        2.40722
C         14.00577       12.93486        6.81077
C         12.75190       13.31644        6.28021
C         12.23655       14.38465        7.06335
C         13.17285       14.65586        8.10154
C         14.28035       13.76857        7.92875
C         14.80359       11.75249        6.33847
H         14.25861       10.82744        6.54131
H         15.76150       11.70102        6.84773
H         14.99011       11.80542        5.26380
C         11.98412       12.54545        5.24395
H         12.63912       12.18947        4.44895
H         11.19548       13.15403        4.80560
H         11.51677       11.66998        5.70395
C         10.84325       14.93404        6.90315
H         10.62402       15.69297        7.65168
H         10.11003       14.13333        7.02515
H         10.69640       15.36798        5.90973
C         12.89839       15.34909        9.41139
H         11.97201       15.91603        9.38084
H         13.70867       16.01379        9.71015
H         12.79297       14.59419       10.19599
C         15.33174       13.53565        8.97886
H         14.95202       12.84735        9.74030
H         15.59981       14.46409        9.48265
H         16.22947       13.09776        8.55022
C         13.39443       17.65170        5.40938
C         13.61195       17.63074        6.81536
C         15.01619       17.50065        7.03370
C         15.65508       17.48002        5.76099
C         14.65558       17.57064        4.76246
C         12.08874       18.00149        4.75005
H         11.24069       17.64923        5.33605
H         12.01859       17.57297        3.75171
H         11.99447       19.08721        4.65495
C         12.59214       18.15505        7.79300
H         12.40962       19.21208        7.57859
H         12.93655       18.08665        8.82109
H         11.63540       17.64194        7.70948
C         15.74267       17.59872        8.35175
H         16.23278       16.65765        8.61570
H         15.06049       17.87455        9.15434
H         16.51025       18.37303        8.29955
C         17.13259       17.60189        5.50760
H         17.45158       16.94790        4.69693
H         17.70140       17.34851        6.39761
H         17.37695       18.63204        5.23254
C         14.89750       17.73884        3.28767
H         14.32900       18.59016        2.90877
H         14.60116       16.85200        2.72213
H         15.95175       17.92645        3.09847
N         13.30902       15.06717        4.22454
Si        18.21008       14.28989        6.58962
Si        16.40904       13.68148        3.05968
Zr        14.33125       15.34462        6.00788
