78
CSD_code = CAJPUY | q = 0 | S = 0 | Stoichiometry = C29H42ClN2PSi2Zr | MND = 5
Zr        10.07864        4.18914        7.38057
Cl         8.11865        3.23442        8.28567
P         12.33654        5.47393        6.23387
Si        12.28983        2.60975        5.43343
Si        12.38585        6.03914        9.22972
N         10.95604        2.54623        6.47951
N         10.86461        5.34219        8.93276
C          8.85892        5.09387        5.74067
H          8.08465        5.73866        6.19011
H          8.32129        4.28180        5.22346
H          9.38043        5.68193        4.96869
C         10.29511        1.39961        6.92457
C          9.43350        0.65942        6.10189
C          8.79043       -0.45403        6.62166
H          8.12150       -1.01805        5.98697
C          8.98148       -0.84405        7.93453
H          8.46681       -1.70954        8.32331
C          9.82788       -0.11344        8.75137
H          9.97528       -0.41220        9.77992
C         10.48674        1.00051        8.26157
C          9.65533        5.85876        9.43349
C          9.04708        5.26447       10.55615
C          7.83205        5.74561       11.01602
H          7.37163        5.27506       11.87262
C          7.20215        6.80671       10.39187
H          6.25061        7.16505       10.75396
C          7.80584        7.41042        9.30475
H          7.32766        8.25280        8.82399
C          9.02681        6.96116        8.82025
C         12.91584        6.34898        4.72436
C         12.08838        7.38230        4.28780
H         11.17198        7.58577        4.82945
C         12.41906        8.13971        3.18046
H         11.76708        8.93729        2.85527
C         13.58525        7.86822        2.48377
H         13.84697        8.45259        1.61434
C         14.41229        6.84131        2.90532
H         15.32239        6.62575        2.36409
C         14.08176        6.08600        4.01713
H         14.74360        5.29051        4.32438
C         13.35655        3.95743        6.31188
H         13.45542        3.71047        7.37147
H         14.35464        4.10981        5.90587
C         11.89360        3.29967        3.68393
H         11.16815        4.10916        3.76364
H         11.47788        2.54743        3.02172
H         12.77986        3.70094        3.20199
C         13.27763        0.98017        5.27639
H         12.59886        0.16701        5.04634
H         13.78759        0.72281        6.19876
H         14.01891        1.02682        4.48668
C          9.21000        1.09112        4.68369
H          9.15639        2.18042        4.63438
H          8.29046        0.66231        4.29301
H         10.03900        0.76796        4.05354
C         11.43299        1.80464        9.11444
H         11.16834        2.88076        9.06895
H         12.45318        1.68173        8.73595
H         11.40210        1.46140       10.14755
C         13.15272        6.51989        7.51397
H         12.95322        7.56607        7.27728
H         14.23244        6.37063        7.46580
C         12.33882        7.59550       10.33893
H         12.07011        8.49289        9.79236
H         13.29732        7.77299       10.81355
H         11.60137        7.46030       11.12273
C         13.59777        4.80231       10.07046
H         13.53011        3.79664        9.66552
H         13.40560        4.73621       11.13680
H         14.62382        5.13547        9.95062
C          9.70056        4.09670       11.23548
H         10.78598        4.18502       11.18798
H          9.38916        3.17271       10.74103
H          9.39015        4.04391       12.27697
C          9.68973        7.70555        7.69135
H          8.94111        8.17826        7.05709
H         10.31105        7.03539        7.08821
H         10.32816        8.49226        8.09808
