100
CSD_code = CAVTID | q = 0 | S = 0 | Stoichiometry = C38H56NP2RhSi2 | MND = 3
Rh        -1.94662        4.21187        4.07061
P         -0.35899        5.50351        3.06154
Si        -2.10591        1.93198        2.50399
N         -0.82985        2.55131        3.45963
C         -2.07357        0.04751        2.30403
C         -2.98072       -0.78105        2.95013
H         -3.73411       -0.34269        3.59071
C         -2.93871       -2.15380        2.78744
H         -3.65471       -2.78126        3.30002
C         -1.97884       -2.72492        1.97070
H         -1.94249       -3.79755        1.84256
C         -1.06401       -1.91453        1.32073
H         -0.30944       -2.35437        0.68314
C         -1.11715       -0.54389        1.48971
H         -0.40164        0.08481        0.97962
C         -3.70097        2.37188        3.47005
C         -3.65191        2.31240        4.86686
H         -2.71099        2.07962        5.35421
C         -4.81673        2.35339        5.62494
H         -4.76732        2.24932        6.70094
C         -6.04359        2.50054        5.00400
H         -6.95248        2.51341        5.58976
C         -6.10376        2.62187        3.62263
H         -7.06186        2.74017        3.13510
C         -4.94674        2.55802        2.87045
H         -5.01064        2.61154        1.79276
C         -2.23855        2.61717        0.71885
H         -2.44921        3.67958        0.68544
H         -3.03221        2.09852        0.18999
H         -1.32032        2.43423        0.17245
C          0.95092        6.41351        4.01392
H          1.51343        7.04245        3.32006
H          0.44993        7.07387        4.72259
C          1.88226        5.47124        4.76058
H          2.54390        6.02925        5.42158
H          2.49375        4.89385        4.07251
H          1.30091        4.77122        5.35258
C          0.66312        4.59281        1.82445
H          1.16896        3.81320        2.39471
H         -0.04562        4.08411        1.17199
C          1.67168        5.38085        0.99834
H          2.21342        4.69310        0.35111
H          2.40206        5.88349        1.62684
H          1.18805        6.12089        0.36507
C         -0.98194        6.94176        2.06316
H         -1.45437        7.63985        2.75763
H         -0.14055        7.45867        1.59788
C         -1.98875        6.49178        1.01623
H         -2.49743        7.34326        0.56618
H         -2.73043        5.84586        1.48652
H         -1.49556        5.93230        0.22525
P         -3.17934        5.90793        4.93703
Si         0.11084        1.81006        4.68455
C         -0.24332       -0.03579        4.98737
C          0.52122       -1.00397        4.34758
H          1.33336       -0.69292        3.70687
C          0.26818       -2.35238        4.51657
H          0.87753       -3.08444        4.00510
C         -0.76584       -2.76615        5.33783
H         -0.96834       -3.81939        5.47153
C         -1.53878       -1.81963        5.98600
H         -2.34958       -2.13168        6.63029
C         -1.27596       -0.47382        5.80810
H         -1.89340        0.24654        6.32632
C          1.93473        1.87439        4.14565
C          2.24847        1.63941        2.81062
H          1.44049        1.45691        2.11662
C          3.55811        1.63193        2.36630
H          3.77748        1.44546        1.32372
C          4.59152        1.85906        3.26027
H          5.61733        1.85581        2.91932
C          4.30126        2.08272        4.59487
H          5.10340        2.25261        5.30004
C          2.98617        2.08577        5.02730
H          2.77810        2.25317        6.07426
C         -0.16697        2.73630        6.35022
H         -0.84094        3.58817        6.18736
H          0.75320        3.11846        6.77907
H         -0.62071        2.09098        7.09606
C         -4.31889        6.91844        3.87405
H         -4.86653        7.63752        4.48722
H         -3.69504        7.48316        3.17889
C         -5.27849        6.03107        3.09492
H         -5.81913        6.60662        2.34548
H         -6.00424        5.56475        3.75740
H         -4.72543        5.23578        2.59551
C         -4.33074        5.41781        6.31362
H         -5.09363        4.79275        5.84460
H         -3.75189        4.76629        6.97492
C         -5.00674        6.51093        7.13242
H         -5.70911        6.05391        7.82831
H         -5.56677        7.19571        6.50048
H         -4.28902        7.08296        7.71428
C         -2.26808        7.30262        5.75686
H         -1.66550        7.79237        4.98884
H         -2.97616        8.03975        6.14117
C         -1.36456        6.77902        6.86487
H         -0.70524        7.56222        7.23610
H         -0.75547        5.96015        6.48259
H         -1.95062        6.40446        7.70078
