84
CSD_code = CEQBOP | q = 0 | S = 0 | Stoichiometry = C31H48O2Si2Ti | MND = 12
C         -3.12461        1.41135       12.43825
C         -2.31030        2.52744       12.77489
C         -2.96840        3.70205       12.34248
C         -4.22920        3.32971       11.79061
C         -4.30768        1.91006       11.81256
C         -5.51248        1.05914       11.52564
H         -6.24339        1.58867       10.91732
H         -6.00019        0.77918       12.46304
H         -5.22181        0.14232       11.01042
C         -1.70729        0.59041       10.35782
C         -2.44242       -0.56268       10.13624
C         -3.16688       -1.52602        9.94158
C         -2.19050        1.98988        8.13034
C         -1.79715        3.33594        8.36258
C         -2.93713        4.06776        8.78347
C         -4.06556        3.19387        8.71835
C         -3.60148        1.90824        8.35383
C         -4.49531        0.78415        7.91908
H         -3.94878       -0.15193        7.85257
H         -4.90773        1.01289        6.93228
H         -5.32967        0.64635        8.60485
C          0.13103        2.05022       10.72960
C         -0.37843        0.66902       10.57222
C          2.23055       -0.43653        9.30424
H          2.62976        0.57162        9.33665
H          1.79936       -0.59909        8.31986
H          3.06014       -1.12786        9.41766
C          0.15563       -2.40586       10.51530
H         -0.31628       -2.53427        9.54766
H         -0.60266       -2.58648       11.26923
H          0.91594       -3.17287       10.61833
C          1.77280       -0.55787       12.41287
H          2.15298        0.44535       12.57388
H          2.60769       -1.24757       12.49183
H          1.07963       -0.78987       13.21772
C         -5.01263       -3.01713        7.99655
H         -5.57230       -3.93039        7.81498
H         -4.27087       -2.92810        7.20827
H         -5.70248       -2.18487        7.89399
C         -5.54096       -3.06709       11.07216
H         -6.12460       -3.98226       11.02980
H         -6.23138       -2.23554       10.96391
H         -5.10430       -3.00490       12.06470
C         -3.08528       -4.59070        9.88407
H         -3.65914       -5.50641        9.77093
H         -2.59913       -4.62421       10.85418
H         -2.30453       -4.59630        9.12971
C         -2.95675        0.04211       13.03119
H         -3.58830       -0.68841       12.53289
H         -3.23944        0.08196       14.08683
H         -1.92343       -0.29813       12.97309
C         -1.33864        0.96841        7.43504
H         -0.30963        1.00914        7.79185
H         -1.33414        1.17385        6.36115
H         -1.71577       -0.04064        7.58998
C         -1.04423        2.46530       13.57074
H         -0.49322        1.54886       13.35801
H         -1.27672        2.48313       14.63886
H         -0.39785        3.31265       13.34660
C         -0.44894        3.91477        8.05597
H         -0.25454        4.80004        8.65967
H         -0.40423        4.19959        7.00108
H          0.34612        3.19440        8.24668
C         -5.50226        3.60543        8.57444
H         -5.68232        4.61138        8.94119
H         -6.18206        2.91652        9.07205
H         -5.75469        3.59324        7.51008
C         -2.95530        5.55840        8.96418
H         -3.89107        5.89952        9.40279
H         -2.84275        6.05135        7.99504
H         -2.13171        5.88422        9.60127
C         -2.47568        5.09629       12.59701
H         -3.10680        5.83541       12.10783
H         -1.45145        5.20987       12.23473
H         -2.47595        5.30534       13.66941
C         -5.38912        4.27857       11.68691
H         -6.25664        3.81096       11.23113
H         -5.14422        5.18409       11.13523
H         -5.67234        4.58236       12.69861
O         -0.79379        2.96473       10.70125
O          1.32223        2.29381       10.86018
Si         0.94341       -0.67540       10.69492
Si        -4.19117       -3.04762        9.71994
Ti        -2.52031        2.47113       10.40964
