69
CSD_code = CUKPUV | q = 0 | S = 0 | Stoichiometry = C18H44N4Si2Zr | MND = 6
Zr        -2.01328        5.64053       11.71277
Si         0.01847        4.79414        9.15655
Si        -2.72130        8.89072       11.14879
N         -3.47665        6.14851       13.12592
N         -4.12560        4.07518       11.25697
N         -1.33697        3.70496       12.15272
N         -0.69057        5.77604       14.02561
C         -4.84283        5.78382       12.85821
H         -5.23778        6.40627       12.04345
H         -5.49075        5.95163       13.73976
C         -4.96126        4.29600       12.44606
H         -4.60039        3.68303       13.27535
H         -6.00913        4.01617       12.25692
C         -3.43733        2.78010       11.28202
H         -2.94396        2.64970       10.31314
H         -4.15826        1.95461       11.42744
C         -2.35076        2.70225       12.35874
H         -2.82211        2.74863       13.37010
H         -1.90923        1.68224       12.29398
C         -0.25574        3.55490       13.09054
H          0.67881        3.91116       12.63577
H         -0.09962        2.49476       13.36787
C         -0.51460        4.36191       14.38637
H         -1.42670        3.97846       14.84969
H          0.30578        4.23171       15.10898
C         -1.72771        6.43851       14.82371
H         -1.70376        7.50493       14.57608
H         -1.52738        6.32033       15.90457
C         -3.13835        5.93106       14.50937
H         -3.23198        4.86452       14.82696
H         -3.83455        6.49088       15.17380
C         -4.97344        4.15043       10.06958
H         -5.71904        3.33907       10.05805
H         -4.37082        4.07266        9.16554
H         -5.50309        5.10248       10.05226
C          0.58211        6.46811       14.21441
H          0.50770        7.50130       13.87752
H          1.36290        5.97138       13.63920
H          0.88235        6.47169       15.27470
C         -1.72307        5.40881        9.43854
H         -2.42756        4.73730        8.93533
H         -1.84948        6.39469        8.97320
C          0.82967        5.18817        7.44958
H          0.29977        4.69561        6.64030
H          1.86614        4.86788        7.40299
H          0.80867        6.25476        7.24763
C          0.14923        2.88813        9.34022
H         -0.24975        2.58404       10.30155
H          1.17677        2.54399        9.27483
H         -0.41228        2.37786        8.56376
C          1.20603        5.59485       10.44841
H          0.65761        5.78348       11.37623
H          1.60241        6.54103       10.09003
H          2.05772        4.95529       10.66520
C         -1.24214        7.79982       11.48396
H         -0.68683        8.19897       12.33999
H         -0.55558        7.83094       10.62826
C         -3.61743        9.40862       12.76512
H         -3.86909        8.52678       13.34378
H         -4.53353        9.95518       12.56356
H         -2.98833       10.04734       13.37740
C         -3.98979        7.94299       10.04741
H         -3.78286        8.08771        8.99057
H         -5.00799        8.28149       10.22097
H         -3.92932        6.87227       10.26410
C         -2.40556       10.54324       10.20193
H         -1.77709       11.21326       10.78018
H         -3.32743       11.07202        9.97932
H         -1.89969       10.35883        9.25911
