125
CSD_code = DOWSUF | q = 0 | S = 0 | Stoichiometry = C48H68N3O3Si2Y | MND = 6
Y         11.66392        4.60012       11.04085
N         12.56233        2.70355       12.03021
N         11.18703        5.82815       12.98938
N         12.19563        6.35442        9.89648
O         13.70347        4.96940       12.89758
O         11.71995        3.27204        9.45946
O          9.80220        3.83615       11.70441
Si        13.82276        6.57839        9.38378
Si        10.90973        7.35286        9.33763
C         13.23279        4.09099       13.86535
C         12.69216        2.87470       13.40865
C         12.23000        1.95491       14.34936
H         11.76545        1.04181       14.00843
C         12.30576        2.23358       15.70191
H         11.93031        1.51708       16.41631
C         12.84812        3.42914       16.13883
H         12.90640        3.64768       17.19372
C         13.31142        4.35928       15.22162
H         13.72638        5.29933       15.55527
C         13.50780        6.31499       13.20795
C         14.56738        7.16477       13.45295
H         15.57576        6.78305       13.41249
C         14.31541        8.49913       13.73921
H         15.13915        9.17053       13.92421
C         13.01354        8.96719       13.78171
H         12.82346       10.00765       13.99818
C         11.94786        8.11429       13.54680
H         10.93403        8.48654       13.55804
C         12.18207        6.77495       13.25421
C         11.96753        2.03996        9.18852
C         11.72597        1.50951        7.87488
C         12.03307        0.19926        7.61758
H         11.85681       -0.18820        6.62858
C         12.57405       -0.68804        8.57061
C         12.78945       -0.20058        9.82861
H         13.19292       -0.82750       10.60836
C         12.49789        1.13935       10.17186
C         12.72831        1.51961       11.51551
H         13.09636        0.71931       12.16851
C         11.14558        2.42816        6.80592
C         10.93351        1.71857        5.46342
H         10.51023        2.42435        4.75156
H         10.23920        0.88657        5.56021
H         11.87419        1.35727        5.05358
C         12.10947        3.60055        6.57518
H         13.08796        3.22879        6.27514
H         12.21973        4.18837        7.48327
H         11.72765        4.24657        5.78678
C          9.78382        2.95665        7.27846
H          9.89446        3.53458        8.19373
H          9.10400        2.12775        7.46666
H          9.34604        3.59648        6.51457
C         12.88450       -2.11713        8.15343
C         11.59368       -2.79773        7.67712
H         11.17003       -2.28822        6.81635
H         10.85267       -2.79487        8.47368
H         11.79506       -3.82935        7.39578
C         13.91307       -2.09538        7.01404
H         13.52911       -1.57340        6.14220
H         14.16718       -3.11103        6.71762
H         14.82129       -1.59244        7.33916
C         13.46436       -2.94738        9.30185
H         13.67139       -3.95697        8.95243
H         12.76079       -3.01531       10.12823
H         14.39669       -2.51825        9.66110
C          8.99805        3.84422       12.70716
C          7.92015        2.89913       12.80892
C          7.07408        2.96762       13.88466
H          6.26715        2.25801       13.95288
C          7.18562        3.91645       14.92127
C          8.21103        4.81578       14.83850
H          8.35940        5.56605       15.59952
C          9.12860        4.80322       13.76471
C         10.18453        5.74285       13.81258
H         10.16872        6.41996       14.67607
C          7.74335        1.85547       11.71126
C          9.01494        1.00078       11.61107
H          9.87135        1.62065       11.36009
H          8.90108        0.24556       10.83558
H          9.20690        0.50012       12.55902
C          7.49113        2.57104       10.37727
H          8.34358        3.19028       10.11295
H          6.60731        3.20233       10.44916
H          7.33447        1.84158        9.58535
C          6.56328        0.91140       11.96899
H          6.49966        0.19146       11.15541
H          5.62253        1.45617       12.00517
H          6.69443        0.35673       12.89570
C          6.17607        3.88726       16.05825
C          4.76764        4.10419       15.48753
H          4.71842        5.05687       14.96475
H          4.03378        4.11198       16.29083
H          4.49695        3.31844       14.78798
C          6.24785        2.52515       16.76265
H          6.00192        1.71295       16.08445
H          5.54794        2.49598       17.59520
H          7.25115        2.35546       17.14784
C          6.44118        4.97691       17.10072
H          7.42198        4.85294       17.55398
H          5.69498        4.91344       17.89021
H          6.37607        5.96685       16.65556
C         14.79342        5.00048        9.89673
H         15.26245        5.11364       10.86920
H         15.57899        4.77122        9.18330
H         14.12949        4.13218        9.93856
C         14.10041        6.82071        7.50371
H         13.67205        6.01903        6.91351
H         15.15987        6.87444        7.27139
H         13.64856        7.75079        7.17580
C         14.65671        8.11212       10.18664
H         14.76794        8.90774        9.45808
H         15.64471        7.88635       10.57441
H         14.05959        8.49971       11.00358
C         11.22363        9.21671        9.63972
H         11.48271        9.41365       10.67497
H         10.35295        9.81509        9.39303
H         12.04817        9.56184        9.02705
C          9.33118        6.85437       10.31083
H          9.21258        5.76797       10.31970
H          8.43908        7.27088        9.85239
H          9.35928        7.20537       11.33934
C         10.46420        7.13656        7.48465
H         11.27758        7.46153        6.84633
H          9.58524        7.71563        7.21787
H         10.25981        6.09651        7.25235
