67
CSD_code = DOXDEA | q = 0 | S = 0 | Stoichiometry = C26H30NO6PSi2W | MND = 6
W          5.13655       10.69845       13.41665
C          1.34961       10.37218       12.48262
H          0.92357       10.21780       11.48552
C          1.29527        8.79665       14.14363
C          0.60637        8.08450       15.21388
C         -0.77094        8.21751       15.38350
H         -1.32557        8.86086       14.71813
C         -1.40939        7.52569       16.39501
H         -2.47645        7.62809       16.52517
C         -0.68357        6.70309       17.24193
H         -1.18649        6.16519       18.03181
C          0.68733        6.57238       17.07909
H          1.25130        5.93492       17.74319
C          1.33378        7.25865       16.07027
H          2.40027        7.17674       15.93229
C          1.38938       11.82634       12.83732
C          1.67316       12.19932       14.14692
H          1.79919       11.43580       14.90215
C          1.74898       13.53628       14.49317
H          1.97113       13.81300       15.51297
C          1.54983       14.51275       13.53240
H          1.62176       15.55638       13.79849
C          1.25262       14.14775       12.23008
H          1.08658       14.90680       11.48038
C          1.16585       12.81149       11.88343
H          0.92383       12.53023       10.86863
C          3.26266        8.47047       11.20596
H          4.33093        8.22556       11.26086
C          1.30615        9.30406        8.84702
H          1.32669        9.48608        7.77727
H          0.62028       10.02783        9.27742
H          0.88327        8.31762        9.00212
C          3.49461       11.30210        9.75872
H          4.54362       11.49519        9.55652
H          3.28820       11.65461       10.76641
H          2.92054       11.91481        9.06906
C          4.31267        8.71465        8.30077
H          4.07872        7.68638        8.05037
H          5.32858        8.73967        8.68261
H          4.29791        9.28729        7.37894
C          0.49997        6.88052       11.70278
H         -0.02612        6.12261       11.13018
H          0.08278        7.84370       11.42839
H          0.26937        6.71284       12.75062
C          2.64488        5.79494        9.76741
H          3.69802        5.69681        9.52857
H          2.15378        6.25606        8.91821
H          2.24302        4.79295        9.87278
C          3.24001        5.76182       12.76917
H          2.70025        4.84332       12.98119
H          3.30360        6.33257       13.68902
H          4.25156        5.48864       12.48170
C          6.84840       11.42009       14.11116
C          4.35215       10.85166       15.24768
C          4.61648       12.56488       12.92115
C          6.02532       10.40926       11.65744
C          5.62310        8.82439       13.89668
N          2.53918        8.62330       13.89328
P          3.08663        9.59578       12.63807
Si         2.38313        6.76245       11.39130
Si         3.07918        9.45075        9.55302
O          0.55938        9.65313       13.42282
O          7.83929       11.82181       14.51929
O          3.98973       10.85116       16.33139
O          4.38117       13.64753       12.63847
O          6.60800       10.16417       10.70212
O          5.86956        7.74038       14.16012
