91
CSD_code = DUTQEQ | q = 1 | S = 0 | Stoichiometry = C29H48BN6O2S2Si2W(1+) | MND = 7
W          2.98599       17.16317       19.57414
S          5.89032       16.58619       17.34525
S          2.79445       18.47926       16.14122
Si         8.16224       13.39455       19.64084
Si         6.79579       20.57609       15.52361
B          3.45191       14.97598       22.00704
H          3.62268       14.20161       22.87278
C          4.43998       17.11990       18.04826
C          3.33054       17.69096       17.55091
C          6.64096       15.62646       18.73123
H          7.23184       16.32509       19.32059
H          5.80199       15.25817       19.31973
C          7.48890       14.49537       18.20778
H          8.31542       14.90158       17.62553
H          6.89541       13.88318       17.52782
C          9.08261       14.50286       20.88892
H          9.52983       13.90660       21.67802
H          8.41903       15.22192       21.36075
H          9.88527       15.05640       20.41082
C          9.30107       12.07284       18.89289
H          8.78291       11.46375       18.15868
H          9.67755       11.40663       19.66211
H         10.15948       12.51929       18.40093
C          6.64256       12.60377       20.48499
H          5.97849       13.35794       20.89805
H          6.94561       11.94909       21.29595
H          6.06645       12.00671       19.78442
C          4.40709       18.98357       15.39370
H          5.02224       18.08802       15.33753
H          4.14908       19.31512       14.39101
C          5.05338       20.08099       16.19703
H          5.14872       19.75839       17.23633
H          4.40013       20.95283       16.20088
C          8.03052       19.22294       16.05814
H          8.07320       19.12244       17.13887
H          9.03210       19.46251       15.71605
H          7.77074       18.25206       15.64669
C          7.23712       22.24653       16.32065
H          8.23952       22.55471       16.04201
H          7.19851       22.20215       17.40502
H          6.55684       23.02998       16.00112
C          6.71503       20.70211       13.62723
H          7.64561       21.09270       13.22788
H          5.92080       21.36825       13.30323
H          6.54545       19.73464       13.16362
C          2.94541       19.16275       19.61660
C          1.23944       17.38634       18.63839
C          5.98316       18.95983       20.44648
H          5.34903       19.77020       20.80918
H          5.80764       18.84014       19.37596
H          7.01956       19.24828       20.60380
C          5.69535       17.70509       21.19333
C          6.46689       17.12419       22.19851
H          7.39576       17.48494       22.58949
C          5.77252       15.99553       22.60271
C          6.14572       15.01912       23.65478
H          6.20516       14.01185       23.24826
H          5.41081       15.01826       24.45743
H          7.11315       15.28689       24.06935
C          0.19625       18.70572       21.32979
H         -0.42120       18.40514       20.48401
H          0.93225       19.42850       20.98070
H         -0.44841       19.18756       22.06046
C          0.85127       17.52767       21.95545
C          0.48804       16.90759       23.14621
H         -0.32008       17.17758       23.79348
C          1.38853       15.86730       23.32514
C          1.44838       14.88840       24.43673
H          2.39381       14.96671       24.96994
H          1.35616       13.87149       24.06096
H          0.63716       15.08059       25.13252
C          2.44051       14.57921       17.16086
H          3.32246       15.03031       16.70245
H          1.62876       15.30906       17.13448
H          2.15120       13.71694       16.56602
C          2.72355       14.14458       18.55537
C          2.78544       12.84208       19.04808
H          2.63299       11.93677       18.49838
C          3.07031       12.96074       20.39815
C          3.19884       11.88184       21.40772
H          2.40080       11.95410       22.14474
H          4.14940       11.94228       21.93178
H          3.12910       10.91663       20.91493
N          4.60554       16.95750       20.99179
N          4.65606       15.92006       21.85493
N          1.91796       16.89291       21.43922
N          2.23781       15.88471       22.28676
N          2.96822       15.00127       19.55415
N          3.18718       14.27426       20.67075
O          2.91407       20.28551       19.36637
O          0.31744       17.65120       18.00957
