95
CSD_code = ECUFIS | q = 0 | S = 0 | Stoichiometry = C39H51FeNOSi2 | MND = 8
Fe         4.82467       11.49739        5.96517
Si         5.91266       15.54872        3.99009
Si         3.82204       16.19891        3.09275
O          2.52388       12.55088        7.34194
N          5.52154       14.17561        4.98383
C          6.73984       10.53370        5.60447
C          6.75182       11.15190        6.89825
C          5.74407       10.53841        7.68440
C          5.10619        9.53598        6.88020
C          5.75950        9.50333        5.61799
C          7.76375       10.75620        4.53474
C          7.76407       12.15017        7.36669
C          5.50164       10.76154        9.14498
C          4.11170        8.53011        7.37200
C          5.53204        8.49298        4.54055
C          3.41961       12.11309        6.76803
C          5.18664       13.11549        5.37902
C          6.84857       16.66863        5.22626
C          7.21002       14.83071        2.77558
C          3.46641       14.85235        1.76907
C          2.79039       16.32317        4.69791
C          2.90703       17.47335        5.49101
C          2.23343       17.56199        6.70128
C          1.43613       16.52965        7.16453
C          1.32140       15.39495        6.37664
C          1.98416       15.27843        5.16531
C          3.72388       18.65765        5.06177
C          0.70901       16.62367        8.47129
C          1.81041       14.01110        4.38829
C          3.51786       17.79811        2.07305
C          2.21650       18.29351        1.91749
C          1.99112       19.45828        1.19532
C          3.02571       20.15905        0.60118
C          4.30888       19.64926        0.72926
C          4.55994       18.48994        1.44579
C          1.02433       17.60855        2.51725
C          2.78122       21.42227       -0.16699
C          5.97423       17.99593        1.51413
C          3.82289       11.15449        4.33231
C          2.62360       10.44936        4.35775
C          2.00718       10.02004        3.19375
C          2.57954       10.29052        1.96340
C          3.76960       10.99383        1.91185
C          4.37709       11.41886        3.08282
H          8.65040       10.14805        4.72578
H          7.36936       10.48437        3.55868
H          8.06724       11.80025        4.50322
H          8.67548       11.63991        7.68460
H          8.02075       12.84311        6.56901
H          7.38295       12.72605        8.20582
H          6.11388       10.07674        9.73531
H          5.75464       11.77940        9.43097
H          4.45866       10.58762        9.39790
H          3.47352        8.95800        8.14157
H          3.47966        8.18255        6.55815
H          4.62554        7.66540        7.79712
H          4.50025        8.15021        4.53781
H          5.74816        8.91058        3.56025
H          6.18163        7.62982        4.69895
H          7.72584       16.16423        5.62328
H          7.18756       17.59464        4.77111
H          6.21363       16.92691        6.06803
H          7.91738       14.19227        3.29814
H          6.73560       14.22675        2.00806
H          7.78099       15.60841        2.27894
H          2.46728       14.91617        1.34951
H          4.15884       14.98156        0.94033
H          3.60279       13.84944        2.15780
H          2.33603       18.45941        7.29704
H          0.70674       14.57661        6.72215
H          3.89336       19.32429        5.90489
H          4.68632       18.35789        4.65777
H          3.20216       19.21880        4.28761
H          0.99865       17.51844        9.01714
H         -0.36741       16.65474        8.30261
H          0.92386       15.75102        9.08571
H          1.10203       13.35425        4.88615
H          1.44346       14.20841        3.38536
H          2.75678       13.47685        4.31426
H          0.97871       19.82567        1.09356
H          5.12973       20.16974        0.25436
H          0.96385       17.80818        3.58599
H          0.10876       17.96913        2.05280
H          1.07615       16.53166        2.38744
H          3.29262       22.25870        0.30901
H          3.16666       21.33166       -1.18182
H          1.71913       21.64906       -0.21666
H          6.03191       16.95845        1.19627
H          6.61618       18.59100        0.86825
H          6.35952       18.06407        2.52953
H          2.15707       10.22891        5.30883
H          1.07644        9.47131        3.24685
H          2.10197        9.95763        1.05292
H          4.22709       11.21309        0.95593
H          5.30584       11.97178        3.02043
