71
CSD_code = EQAWAV | q = 1 | S = 0 | Stoichiometry = C29H37NbOPSi2(1+) | MND = 12
Nb        -0.51202        9.14870        3.97679
Si        -2.10795       12.65167        2.68210
Si        -3.13562        6.37509        4.62733
P          1.93300        8.98017        3.28827
H          2.44028        7.68105        3.16032
C         -0.00401        7.90044        5.44091
O          0.20490        7.17649        6.31227
C         -1.26819       11.45580        3.90291
C          0.09768       11.45772        4.27251
H          0.88541       12.00142        3.76542
C          0.24184       10.82482        5.53669
H          1.12780       10.85450        6.16257
C         -1.05965       10.44068        5.97043
H         -1.31169       10.07429        6.95748
C         -1.96661       10.80651        4.96149
H         -3.04342       10.75481        5.05101
C         -2.29858       14.24792        3.70276
H         -2.78966       15.01622        3.11448
H         -1.33679       14.64120        4.01891
H         -2.89526       14.08716        4.59593
C         -3.81286       11.98248        2.15065
H         -4.35007       12.75935        1.61544
H         -4.42694       11.70430        3.00257
H         -3.75213       11.12512        1.48635
C         -1.02297       12.97149        1.14588
H         -1.00632       12.13733        0.45011
H          0.00232       13.21648        1.40754
H         -1.42435       13.82277        0.60505
C         -2.05482        7.40843        3.44831
C         -2.45877        8.59597        2.78972
H         -3.42278        9.07060        2.91492
C         -1.52377        8.90990        1.77332
H         -1.64302        9.67406        1.01722
C         -0.52758        7.92048        1.78425
H          0.26369        7.80273        1.05192
C         -0.82358        7.01575        2.83737
H         -0.32876        6.06312        2.99351
C         -3.49611        7.46618        6.15152
H         -3.99778        8.39081        5.87856
H         -2.58359        7.72204        6.68438
H         -4.14423        6.94527        6.84864
C         -4.73342        5.96798        3.67358
H         -5.38485        5.34830        4.28051
H         -4.52508        5.42310        2.75771
H         -5.29049        6.86060        3.40548
C         -2.17104        4.80555        5.10192
H         -1.22763        5.03448        5.58883
H         -1.95950        4.18723        4.23460
H         -2.75356        4.20294        5.79077
C          3.12436        9.59520        4.50914
C          3.75237       10.82734        4.35749
H          3.57588       11.41920        3.46917
C          4.61654       11.28251        5.33846
H          5.10973       12.23496        5.21858
C          4.85016       10.51685        6.46903
H          5.52562       10.87451        7.23047
C          4.22175        9.28949        6.62347
H          4.40986        8.69285        7.50272
C          3.35593        8.82794        5.65021
H          2.86054        7.87117        5.76027
C          2.53026        9.66504        1.71999
C          1.73771       10.55892        1.01013
H          0.75971       10.82089        1.39537
C          2.20094       11.10216       -0.17546
H          1.58847       11.79867       -0.72796
C          3.45272       10.74867       -0.65259
H          3.81377       11.16969       -1.57804
C          4.24389        9.85291        0.05260
H          5.21661        9.57882       -0.32562
C          3.78878        9.30898        1.23872
H          4.39865        8.61203        1.79783
