63
CSD_code = EZIWIU | q = 0 | S = 0 | Stoichiometry = C22H36Cl2Si2Zr | MND = 12
Zr        -1.36172        5.17916        4.20429
Cl        -3.03957        6.82290        4.05656
C         -1.69753        3.33184        5.71751
C         -2.74034        4.26241        6.04079
C         -2.15909        5.40651        6.63781
C         -0.75381        5.21973        6.68369
C         -0.45901        3.97141        6.08751
C         -4.22295        4.07076        5.87805
H         -4.70772        4.01698        6.85502
H         -4.44654        3.15606        5.33917
H         -4.65890        4.91524        5.33717
C         -2.88188        6.58230        7.22761
H         -2.84790        6.53767        8.31858
H         -3.92325        6.59843        6.91456
H         -2.41685        7.51916        6.91439
C          0.21122        6.12525        7.39146
H         -0.06869        7.17047        7.26428
H          1.22482        5.99591        7.01691
H          0.20981        5.90282        8.46154
C          0.92939        3.40105        5.99181
H          1.62949        4.16583        5.64404
H          0.96221        2.55695        5.30708
H          1.27298        3.05820        6.97050
Si        -1.78383        1.48728        5.31299
C         -0.76329        0.51079        6.61228
H         -0.95711        0.87203        7.61819
H          0.30542        0.57497        6.44318
H         -1.03058       -0.54085        6.58548
C         -3.52981        0.71427        5.48701
H         -3.44047       -0.36622        5.43461
H         -4.22030        1.01039        4.70411
H         -3.98465        0.95551        6.44245
Cl         0.31625        6.82299        4.35292
C         -1.02585        3.33182        2.69114
C          0.01696        4.26239        2.36785
C         -0.56429        5.40646        1.77078
C         -1.96957        5.21968        1.72489
C         -2.26437        3.97138        2.32111
C          1.49956        4.07076        2.53063
H          1.98434        4.01691        1.55367
H          1.72315        3.15610        3.06958
H          1.93550        4.91528        3.07144
C          0.15849        6.58228        1.18102
H          0.12453        6.53767        0.09006
H          1.19985        6.59843        1.49410
H         -0.30656        7.51913        1.49426
C         -2.93460        6.12521        1.01715
H         -2.65469        7.17043        1.14434
H         -3.94820        5.99588        1.39173
H         -2.93321        5.90280       -0.05293
C         -3.65278        3.40104        2.41686
H         -4.35286        4.16582        2.76465
H         -3.68558        2.55693        3.10159
H         -3.99641        3.05821        1.43817
Si        -0.93954        1.48727        3.09569
C         -1.96008        0.51078        1.79640
H         -1.76626        0.87204        0.79050
H         -3.02879        0.57496        1.96551
H         -1.69278       -0.54085        1.82320
C          0.80645        0.71428        2.92167
H          0.71711       -0.36622        2.97406
H          1.49693        1.01040        3.70458
H          1.26129        0.95554        1.96624
