61
CSD_code = FEQCAI | q = 0 | S = 0 | Stoichiometry = C28H28Cl2Si2Zr | MND = 12
Zr         4.19467        3.90146        2.99721
Cl         2.40851        2.40016        2.82491
Cl         2.79982        5.66393        2.32632
Si         4.87464        1.34270        5.76683
Si         6.26917        0.82572        2.33272
C          4.67909        3.10305        5.14370
C          3.53279        3.95806        5.35099
C          2.20067        3.67909        5.70873
H          1.88663        2.65737        5.87675
C          1.32260        4.72473        5.86065
H          0.29821        4.52799        6.13997
C          1.72771        6.05666        5.66917
H          1.00467        6.84614        5.80861
C          3.01486        6.36827        5.30812
H          3.31920        7.39562        5.16032
C          3.94083        5.32455        5.13245
C          5.32945        5.31134        4.79149
H          5.95472        6.18703        4.66598
C          5.77220        3.98257        4.87791
H          6.80809        3.66754        4.86759
C          4.74954        1.53804        7.67487
H          3.77683        1.94329        7.94116
H          5.49589        2.22125        8.06903
H          4.85532        0.58771        8.18889
C          3.49109        0.10567        5.31610
H          2.84905       -0.05463        6.17715
H          3.88813       -0.86108        5.02874
H          2.86808        0.46977        4.50629
C          6.65973        0.81982        5.29760
C          7.50091        0.58165        6.38512
H          7.09084        0.62020        7.38056
C          8.84574        0.29780        6.24369
H          9.45930        0.12077        7.11506
C          9.39248        0.25423        4.97594
H         10.44445        0.05258        4.83472
C          8.57179        0.45900        3.88357
H          9.01192        0.40374        2.90143
C          7.20758        0.73199        4.00290
C          7.44741        0.23699        0.93400
H          6.90862        0.18801       -0.00834
H          7.84486       -0.75324        1.13221
H          8.28336        0.91352        0.78339
C          4.75332       -0.32866        2.24199
H          4.63944       -0.71167        1.23237
H          3.83595        0.19011        2.50043
H          4.85812       -1.18543        2.89762
C          5.74383        2.55210        1.81591
C          4.69971        2.79169        0.86505
H          4.06843        2.01821        0.44042
C          4.66222        4.14258        0.50933
H          4.00104        4.59930       -0.21667
C          5.73107        4.80218        1.19265
C          6.17930        6.13542        1.19860
H          5.62861        6.89457        0.65942
C          7.34691        6.43906        1.85727
H          7.71401        7.45457        1.85932
C          8.10498        5.44300        2.49658
H          9.04828        5.71468        2.94675
C          7.67604        4.13860        2.54720
H          8.28118        3.37222        3.01514
C          6.45243        3.79707        1.94175
