91
CSD_code = FEZPOS | q = 0 | S = 0 | Stoichiometry = C24H54MoO10Si2 | MND = 4
Mo         4.79384        9.12715        1.30979
Si         2.09626        7.77491        2.83078
Si         4.03421       11.78987       -0.64164
O          2.60563        7.24759        4.28350
O          1.55959        6.48407        2.01160
O          2.64496       11.58582       -1.44689
O          3.30501        8.55095        2.05638
O          5.21020       11.99700       -1.72911
O          3.89903       13.09925        0.30042
O          0.93462        8.89669        2.88615
O          4.33591       10.46339        0.27341
O          5.83252        9.68305        2.45691
O          5.46881        7.91148        0.43122
C          6.62606       12.09043       -1.58572
C          2.25866        5.48075        1.27131
C          2.07146       10.39871       -1.99020
C          3.59659        7.74097        5.18502
C         -0.44350        8.80487        3.22417
C          3.39226       13.24804        1.62661
C          1.35160        4.24645        1.27926
H          1.19304        3.91462        2.30173
H          1.80430        3.44067        0.70880
H          0.38701        4.49236        0.84302
C          3.59937        9.26867        5.20627
H          3.96878        9.64798        4.25092
H          4.24537        9.63190        6.00126
H          2.58903        9.63756        5.36602
C          3.14820        9.47463       -2.55660
H          3.75976       10.02825       -3.26428
H          2.69148        8.62599       -3.05960
H          3.79335        9.10803       -1.75492
C          3.60792        5.16106        1.90909
H          4.27425        6.02516        1.82300
H          4.06740        4.31445        1.40550
H          3.46758        4.92268        2.96000
C          1.28919        9.68869       -0.87985
H          1.96143        9.41300       -0.06169
H          0.81582        8.79001       -1.26671
H          0.52273       10.35241       -0.48625
C          4.96879        7.22178        4.74681
H          4.97161        6.13451        4.73074
H          5.73531        7.56921        5.43428
H          5.20753        7.59390        3.74048
C          2.21999       12.30165        1.88752
H          1.48322       12.41712        1.09664
H          1.75874       12.53178        2.84471
H          2.55877       11.26089        1.90468
C          1.12506       10.85640       -3.10438
H          0.39189       11.55066       -2.70346
H          0.61051       10.00452       -3.54013
H          1.69238       11.36691       -3.87712
C          7.19274       11.98744       -3.00522
H          6.95948       11.01380       -3.42708
H          8.27061       12.12119       -2.99320
H          6.74475       12.75282       -3.63282
C          7.16532       10.94676       -0.72000
H          6.85616       11.06738        0.32427
H          8.25175       10.93039       -0.76115
H          6.78429        9.98633       -1.08059
C          2.46673        5.99719       -0.15324
H          1.51428        6.29864       -0.58240
H          2.91103        5.22313       -0.77296
H          3.13821        6.85814       -0.12957
C          3.22466        7.18328        6.56310
H          2.25398        7.56485        6.86841
H          3.96916        7.47042        7.30001
H          3.16794        6.09928        6.51781
C         -0.61703        7.99748        4.50803
H         -0.23086        6.99456        4.35507
H         -1.66600        7.94736        4.78679
H         -0.05467        8.45932        5.31464
C         -1.19351        8.13369        2.07389
H         -1.06699        8.71294        1.16354
H         -2.25220        8.05402        2.30496
H         -0.77791        7.14384        1.91483
C          6.97864       13.44059       -0.96245
H          6.59853       14.24403       -1.58741
H          8.05560       13.54119       -0.85960
H          6.51160       13.51897        0.01438
C         -0.93125       10.24281        3.42006
H         -0.39056       10.71014        4.23857
H         -1.99408       10.25320        3.64481
H         -0.75076       10.81801        2.51649
C          4.52938       12.96551        2.61223
H          4.90688       11.94963        2.46670
H          4.17650       13.06804        3.63518
H          5.34604       13.66539        2.44994
C          2.93001       14.70431        1.73872
H          3.75382       15.36955        1.49631
H          2.58398       14.91673        2.74642
H          2.12348       14.88819        1.03472
