89
CSD_code = FICCOK | q = 0 | S = 0 | Stoichiometry = C32H52O2Si2Zr | MND = 12
Zr         9.68055        7.59166        8.52274
C         10.60172        9.45632        9.04941
O         10.85447       10.61211        8.99259
C          8.52549        9.36762        8.18339
O          8.12794       10.46976        8.35720
Si        10.57506        4.23855        7.36946
Si         9.23586        4.05301        9.33053
C         10.80144        6.08714        7.03348
C         11.78318        7.09674        7.31943
C         11.39641        8.27608        6.64308
H         11.98441        9.17809        6.57549
C         10.19099        8.04851        5.94310
C          9.81517        6.71909        6.20330
H          9.04816        6.17822        5.66701
C          8.77371        5.81399        9.84649
C          9.67386        6.48270       10.74297
H         10.50849        5.99583       11.22757
C          9.12927        7.71889       11.13225
C          7.90067        7.85658       10.44932
H          7.20042        8.66291       10.60240
C          7.66726        6.71075        9.65520
C          9.55706        8.97471        4.92552
C          8.02829        8.84473        4.93923
H          7.63806        9.08017        5.93132
H          7.71758        7.83957        4.66241
H          7.59021        9.53798        4.22387
C         10.07906        8.57681        3.53430
H          9.80232        7.55088        3.30272
H         11.16344        8.65163        3.50346
H          9.66364        9.23058        2.77038
C          9.93444       10.43431        5.20094
H          9.68601       10.71193        6.22357
H          9.39559       11.09424        4.52409
H         10.99857       10.59532        5.04860
C          9.64272        8.61240       12.24274
C          9.18474        8.01165       13.58278
H          9.59408        7.01240       13.71193
H          8.10005        7.94123       13.61286
H          9.51585        8.63355       14.41175
C          9.07704       10.03076       12.11271
H          9.28131       10.43990       11.12507
H          9.52926       10.68365       12.85650
H          8.00188       10.03573       12.27253
C         11.17533        8.68419       12.22820
H         11.52670        9.06676       11.26798
H         11.61554        7.70522       12.40531
H         11.52313        9.35309       13.01295
C         13.10099        6.93444        8.05532
C         13.76973        8.29204        8.31396
H         13.09569        8.96241        8.84755
H         14.07042        8.76416        7.38235
H         14.66419        8.15019        8.91797
C         14.05833        6.08588        7.20661
H         13.62748        5.11530        6.99294
H         15.00512        5.94558        7.72456
H         14.25409        6.58584        6.26079
C         12.85434        6.27954        9.42028
H         12.36994        5.31109        9.31198
H         12.22382        6.94472       10.02064
H         13.79869        6.13052        9.94346
C          6.37767        6.45280        8.89683
C          5.53999        7.73261        8.76381
H          6.12126        8.53164        8.30304
H          5.18461        8.07077        9.73361
H          4.66891        7.53676        8.14098
C          6.69923        5.96873        7.47735
H          7.30493        5.06488        7.49559
H          7.23536        6.76404        6.94794
H          5.77911        5.75015        6.93572
C          5.54045        5.41154        9.65296
H          6.09177        4.48693        9.77366
H          4.61580        5.20390        9.11790
H          5.28891        5.78819       10.64175
C         12.11597        3.10128        7.47062
H         12.68200        3.09833        6.54384
H         11.77218        2.08443        7.63689
H         12.79560        3.34225        8.28019
C          9.65173        3.50838        5.85070
H         10.15328        3.76325        4.92153
H          8.62405        3.84902        5.77206
H          9.62384        2.42527        5.91812
C         10.26067        3.30400       10.77324
H          9.74046        3.40098       11.72184
H         11.23697        3.76481       10.88669
H         10.42662        2.24516       10.60072
C          7.85391        2.74096        9.11429
H          7.30138        2.57634       10.03460
H          8.32430        1.79764        8.85224
H          7.14156        2.96863        8.32936
