106
CSD_code = FIXROU | q = 0 | S = 0 | Stoichiometry = C45H51NO2OsP2S2Si2 | MND = 6
Os         2.49757       -0.91519        3.57949
P          2.84344        1.37802        3.94323
P          2.53964       -3.08780        2.69789
S          4.85042       -1.31941        4.41619
S          4.33153       -0.49464        1.67007
Si         1.67795       -1.44737        5.76640
Si         2.74125       -0.17404        8.39926
O         -0.30334       -0.49256        2.51785
O          2.24470       -0.31002        6.85323
N          6.76251       -0.94557        2.62297
C          0.78904       -0.63798        2.90032
C          5.44666       -0.92170        2.88024
C          7.74085       -1.29334        3.61975
H          7.24520       -1.52451        4.55941
H          8.42682       -0.45619        3.77379
H          8.31012       -2.16667        3.29085
C          7.30842       -0.62046        1.33140
H          6.50371       -0.38181        0.63948
H          7.87468       -1.47159        0.94439
H          7.97704        0.24028        1.41609
C         -0.22282       -1.52425        6.14273
H         -0.44126       -0.89785        6.99899
H         -0.51958       -2.53915        6.37989
H         -0.83823       -1.18664        5.31670
C          2.37472       -3.10695        6.47109
H          2.03534       -3.23746        7.49290
H          3.45972       -3.08912        6.48684
H          2.04922       -3.96909        5.89935
C          2.78194        1.67910        8.84060
H          1.83260        2.15416        8.61677
H          3.55287        2.22686        8.30927
H          2.97091        1.80021        9.90269
C          1.52460       -1.01667        9.60106
H          0.54441       -0.55293        9.54641
H          1.86663       -0.93779       10.62831
H          1.39646       -2.07038        9.37634
C          4.48249       -0.94517        8.56733
H          4.42776       -1.98283        8.88246
H          5.09405       -0.41714        9.29293
H          5.00378       -0.92528        7.61429
C          4.56033        1.83639        4.33868
C          5.01133        1.57927        5.63198
H          4.31108        1.19721        6.36125
C          6.33781        1.78482        5.95819
H          6.68172        1.58426        6.96257
C          7.22851        2.22834        4.99207
H          8.26825        2.38189        5.24478
C          6.78857        2.46314        3.70014
H          7.48417        2.79803        2.94291
C          5.45949        2.26355        3.36774
H          5.12342        2.42816        2.35264
C          1.87228        2.31650        5.17134
C          2.36397        3.39973        5.88829
H          3.40787        3.67498        5.82198
C          1.51893        4.12527        6.70986
H          1.90638        4.96643        7.26695
C          0.18461        3.77432        6.82435
H         -0.46899        4.34317        7.46975
C         -0.30726        2.68967        6.11580
H         -1.34616        2.40934        6.20753
C          0.53175        1.96788        5.28924
H          0.16493        1.11690        4.73140
C          2.50203        2.48432        2.51802
C          1.93193        1.99907        1.35001
H          1.70605        0.94574        1.26877
C          1.66292        2.84937        0.29184
H          1.22127        2.45755       -0.61264
C          1.96015        4.19677        0.39338
H          1.75248        4.86263       -0.43145
C          2.52598        4.69124        1.55831
H          2.75884        5.74311        1.64238
C          2.79333        3.84317        2.61538
H          3.23335        4.23638        3.52089
C          1.98287       -3.26337        0.95770
C          1.90037       -4.53436        0.39234
H          2.16384       -5.40281        0.98006
C          1.48567       -4.68852       -0.91615
H          1.42543       -5.67764       -1.34687
C          1.14685       -3.57907       -1.67540
H          0.82084       -3.70336       -2.69767
C          1.23065       -2.31410       -1.12118
H          0.97270       -1.44559       -1.70913
C          1.64745       -2.15778        0.18925
H          1.72833       -1.16927        0.61712
C          4.18382       -3.86985        2.58722
C          4.92717       -3.81463        1.41278
H          4.49268       -3.38827        0.51887
C          6.22715       -4.28914        1.39153
H          6.79739       -4.24336        0.47421
C          6.79782       -4.81165        2.53967
H          7.81471       -5.17768        2.52086
C          6.06640       -4.85698        3.71636
H          6.51377       -5.25139        4.61735
C          4.76995       -4.37969        3.74458
H          4.20553       -4.38293        4.66657
C          1.48574       -4.41070        3.39380
C          0.17912       -4.03383        3.69033
H         -0.10612       -2.99975        3.55065
C         -0.72485       -4.96207        4.16841
H         -1.73640       -4.66144        4.39670
C         -0.33030       -6.27737        4.35851
H         -1.03211       -7.00505        4.73849
C          0.96673       -6.65845        4.06101
H          1.27617       -7.68366        4.20592
C          1.87423       -5.73266        3.57426
H          2.88380       -6.04513        3.34493
