109
CSD_code = GAXZOX | q = 0 | S = 0 | Stoichiometry = C40H62FeN4Si2 | MND = 4
Fe        14.01908       10.55521       20.47967
Si        15.24301        9.14610       22.92074
Si        15.91667       12.41304       18.83385
N         13.90225        9.26613       21.82023
N         14.31442       12.09379       19.41340
N         14.73468        9.08422       18.58143
N         11.66058       10.47362       19.97693
C         12.78583        8.46119       22.07845
C         11.68161        8.94860       22.80735
C         10.61795        8.10594       23.08782
H          9.78543        8.47236       23.66832
C         10.59928        6.79546       22.65214
H          9.76370        6.15229       22.88688
C         11.66557        6.31915       21.91747
H         11.65559        5.29379       21.57766
C         12.75377        7.12581       21.62465
C         11.65077       10.37270       23.31134
H         12.35588       10.94902       22.69760
C         10.25850       10.99770       23.19295
H          9.83210       10.81775       22.21013
H         10.31438       12.07122       23.35624
H          9.58300       10.59128       23.94238
C         12.09544       10.43180       24.77529
H         11.43238        9.82884       25.39352
H         12.06363       11.45780       25.13723
H         13.10440       10.05128       24.88545
C         13.90417        6.53916       20.83936
H         14.59439        7.35554       20.61258
C         14.63696        5.48570       21.67378
H         14.96757        5.91121       22.61613
H         15.50466        5.10925       21.13401
H         13.97996        4.64607       21.89050
C         13.44874        5.91637       19.51680
H         12.79987        5.06082       19.68742
H         14.31403        5.57523       18.95039
H         12.90877        6.63797       18.90790
C         15.67431       10.92519       23.48365
H         15.65277       11.60653       22.63864
H         16.67073       10.95908       23.91110
H         14.98449       11.30459       24.22957
C         14.83974        8.06252       24.45252
H         13.82239        7.68625       24.41398
H         14.95201        8.62046       25.37726
H         15.50385        7.20608       24.51886
C         16.87807        8.41293       22.22546
H         16.74065        7.46631       21.71480
H         17.56764        8.23993       23.04667
H         17.37032        9.09718       21.54365
C         13.35076       13.08453       19.21813
C         13.03437       13.95122       20.29014
C         12.15174       14.99947       20.09158
H         11.93854       15.68017       20.90200
C         11.53378       15.19402       18.86948
H         10.84918       16.01776       18.72904
C         11.79925       14.31970       17.83527
H         11.30656       14.46324       16.88455
C         12.69907       13.27544       17.98706
C         13.65304       13.72750       21.65137
H         13.95786       12.66722       21.68797
C         12.67081       13.98108       22.79565
H         12.51914       15.04660       22.95582
H         13.06297       13.55838       23.71792
H         11.70854       13.52313       22.58605
C         14.89367       14.60171       21.84287
H         15.64492       14.36269       21.09833
H         15.31707       14.44136       22.83266
H         14.63184       15.65400       21.74478
C         12.97417       12.36213       16.81823
H         13.68360       11.60424       17.15913
C         11.70076       11.65410       16.34860
H         11.24413       11.10389       17.16735
H         11.93309       10.95717       15.54469
H         10.97172       12.36947       15.97517
C         13.59955       13.14135       15.65894
H         12.89410       13.86466       15.25601
H         13.88695       12.46447       14.85570
H         14.48146       13.67853       15.99749
C         16.19503       14.27898       18.47685
H         16.47552       14.43923       17.44028
H         16.98711       14.69864       19.08954
H         15.29265       14.85308       18.66180
C         17.09919       11.75955       20.18303
H         17.30303       12.48637       20.96095
H         18.05060       11.46156       19.75695
H         16.64717       10.89003       20.65130
C         16.51419       11.53792       17.22700
H         16.62497       10.46898       17.36678
H         17.49188       11.92838       16.95791
H         15.86091       11.69318       16.37680
C         13.96065        8.86423       17.52573
H         13.03521        9.41980       17.49951
C         14.29253        7.98634       16.50624
H         13.62999        7.85265       15.66519
C         15.48777        7.28970       16.59048
H         15.78238        6.59749       15.81535
C         16.29782        7.50835       17.69462
H         17.23944        6.99282       17.80409
C         15.88206        8.41754       18.65333
H         16.49424        8.63341       19.51527
C         10.79065       11.47722       19.96877
H         11.14034       12.40893       20.38284
C          9.50397       11.37193       19.46343
H          8.84704       12.22744       19.47675
C          9.08354       10.15277       18.95671
H          8.08617       10.02816       18.56108
C          9.97972        9.09398       18.97897
H          9.69977        8.12012       18.60824
C         11.24746        9.30624       19.49227
H         11.96667        8.50409       19.53935
