69
CSD_code = GIRNUQ | q = 0 | S = 0 | Stoichiometry = C23H38FeN2O3Si2 | MND = 7
Fe        -2.18226        2.44047        9.23816
Si        -2.06072       -0.06851       11.91886
Si        -4.45251        0.90844        6.77944
O          0.45394        2.73440       10.43891
O         -1.37763        3.54635        6.66760
O         -3.28193        4.92596       10.33200
N         -1.58463       -0.48128        8.16063
N         -5.16355        1.42642       10.46340
C         -0.58850        2.59964        9.97213
C         -1.71271        3.09668        7.67098
C         -2.91318        3.91367        9.92252
C         -2.70353        0.65640       10.30105
C         -2.31394        0.48835        8.86787
C         -3.61175        1.06226        8.45945
C         -3.99910        1.13112        9.85220
C         -0.27926       -0.73422       11.79292
C         -3.20264       -1.52699       12.40612
C         -2.02130        1.26476       13.29560
C         -3.13005        0.49687        5.47654
C         -5.73003       -0.51417        6.88809
C         -5.32094        2.53299        6.25378
C         -0.13954       -0.35093        8.14488
C          0.43562       -1.24847        7.05294
C          0.03650       -2.69847        7.30857
C         -1.48328       -2.79528        7.39244
C         -2.01092       -1.83876        8.45817
C         -5.17352        1.73252       11.87940
C         -6.53985        1.41512       12.47985
C         -7.62900        2.19419       11.75089
C         -7.55744        1.86782       10.26327
C         -6.16318        2.17317        9.72507
H         -0.19915       -1.60961       11.15636
H          0.07919       -1.02047       12.77798
H          0.39626        0.02442       11.40989
H         -4.24003       -1.22447       12.50946
H         -2.89002       -1.95444       13.35402
H         -3.16999       -2.31919       11.66409
H         -2.77741        1.10004       14.05827
H         -2.17118        2.26077       12.88659
H         -1.05775        1.26678       13.79654
H         -2.51923        1.36783        5.26152
H         -3.57925        0.16911        4.54328
H         -2.46700       -0.28372        5.83060
H         -6.41226       -0.39390        7.72440
H         -5.23752       -1.47469        7.00394
H         -6.32685       -0.56119        5.98246
H         -6.38604        2.53118        6.46548
H         -5.20868        2.68909        5.18556
H         -4.88300        3.39249        6.75375
H          0.09629        0.69695        7.94112
H          0.30970       -0.62248        9.11229
H          1.52196       -1.14841        7.03426
H          0.04478       -0.92737        6.08614
H          0.47628       -3.03627        8.25054
H          0.41299       -3.34250        6.51167
H         -1.91722       -2.52841        6.42725
H         -1.79034       -3.81458        7.63470
H         -1.65366       -2.16261        9.45135
H         -3.10382       -1.85282        8.47123
H         -4.40416        1.14273       12.36958
H         -4.93923        2.79826       12.02844
H         -6.73268        0.34464       12.38311
H         -6.53260        1.66601       13.54141
H         -8.61157        1.93766       12.14984
H         -7.47346        3.26527       11.89830
H         -8.29325        2.44917        9.70616
H         -7.77440        0.80829       10.11298
H         -5.95630        3.25126        9.81285
H         -6.09788        1.89877        8.67525
