81
CSD_code = GODSOI | q = 0 | S = 0 | Stoichiometry = C22H52ClFeNP2Si2 | MND = 4
Fe         7.03574       -0.39711        4.68510
Cl         7.34792        0.81572        6.40863
P          5.94872        1.19553        3.53200
P          7.73932       -2.19342        5.87634
Si         5.83866       -1.23939        1.71997
Si         8.43247       -2.32774        3.00266
N          6.98618       -1.42781        2.96504
C          4.45008       -2.56034        1.72187
H          4.87645       -3.55603        1.66326
H          3.80306       -2.43435        0.85935
H          3.82767       -2.52047        2.60935
C          6.52930       -1.24369       -0.05995
H          6.60200       -2.26606       -0.41146
H          7.51799       -0.80576       -0.12362
H          5.87911       -0.70984       -0.74572
C          5.01608        0.44023        2.15006
H          4.94420        1.12661        1.30995
H          4.00675        0.23504        2.49863
C          7.11357        2.41841        2.68108
C          6.46503        3.65805        2.07147
H          7.21099        4.20640        1.49549
H          6.07961        4.32786        2.83511
H          5.65637        3.38700        1.39526
C          7.81400        1.62474        1.57672
H          8.70636        2.15452        1.24390
H          7.16365        1.48627        0.71778
H          8.10445        0.64502        1.95172
C          8.16489        2.81618        3.71842
H          8.91619        3.46574        3.27011
H          8.66343        1.92171        4.09757
H          7.72286        3.33381        4.56455
C          4.57041        2.12569        4.46572
C          3.91874        1.01935        5.30429
H          3.08730        1.41923        5.88306
H          4.64951        0.60661        5.99939
H          3.53727        0.21506        4.67516
C          5.13313        3.17861        5.41870
H          4.34093        3.52877        6.08033
H          5.51978        4.04069        4.88170
H          5.92193        2.75557        6.03470
C          3.51025        2.77251        3.57267
H          2.74600        3.22241        4.20674
H          3.01850        2.04841        2.92883
H          3.92959        3.55754        2.95195
C          9.84481       -1.05665        3.25696
H         10.06884       -0.50912        2.34781
H         10.77243       -1.50360        3.59823
H          9.52150       -0.33284        4.01240
C          8.78342       -3.46475        1.52623
H          8.99324       -2.87767        0.64253
H          7.92688       -4.09116        1.31032
H          9.63530       -4.10905        1.71028
C          8.38367       -3.36249        4.61926
H          7.74517       -4.23647        4.52684
H          9.38037       -3.69979        4.88672
C          9.01411       -2.31401        7.28473
C          9.43979       -3.73930        7.63660
H         10.23694       -3.69514        8.37871
H          9.82018       -4.28520        6.77731
H          8.61852       -4.30572        8.06493
C         10.21912       -1.53185        6.75446
H         11.01154       -1.50596        7.50163
H          9.92566       -0.50582        6.53611
H         10.62112       -1.98493        5.85099
C          8.51642       -1.61710        8.55065
H          9.35858       -1.43697        9.21832
H          7.79928       -2.23255        9.08573
H          8.06285       -0.65897        8.31231
C          6.07909       -2.94410        6.42474
C          5.21905       -2.77500        5.16768
H          4.20921       -3.14588        5.34221
H          5.64235       -3.30058        4.31596
H          5.15704       -1.71005        4.89843
C          5.45349       -2.08565        7.52783
H          4.37071       -2.20837        7.52490
H          5.68061       -1.03210        7.37038
H          5.81278       -2.36775        8.51240
C          6.09824       -4.40981        6.84950
H          5.07609       -4.78452        6.90532
H          6.54634       -4.52939        7.83248
H          6.64400       -5.03098        6.14319
