73
CSD_code = GUNDEY | q = 0 | S = 0 | Stoichiometry = C29H33BrMnN2O4PSi2 | MND = 6
Br         1.28160        2.67051        4.01827
Mn         3.13286        2.39547        2.33209
P          1.99084        3.38200        0.53127
Si         2.94721        8.54632        1.18527
Si         4.07918        6.83701       -1.21517
O          3.89857        5.16078        2.94503
O          4.57828        1.14193        4.56035
O          5.49018        1.97451        0.66339
O          1.77585       -0.07174        1.48903
N          2.59490        4.86408        0.17475
N          2.91651        7.11624        0.11346
C          3.63548        4.06663        2.73952
C          4.01645        1.63202        3.69308
C          4.53982        2.14619        1.28245
C          2.32655        0.86955        1.82662
C          2.48658        2.44982       -0.96070
C          3.67022        2.77075       -1.61515
C          4.08053        2.03233       -2.70993
C          3.32059        0.96102       -3.14960
C          2.14515        0.63193       -2.49446
C          1.72716        1.37093       -1.40273
C          0.17451        3.34690        0.27024
C         -0.27855        4.04540       -0.84676
C         -1.62591        4.08118       -1.14095
C         -2.52957        3.41335       -0.32813
C         -2.07875        2.70366        0.77004
C         -0.72765        2.66602        1.07338
C          2.15662        6.05516        0.44298
C          0.81195        6.30456        0.98182
C         -0.03338        7.16346        0.28545
C         -1.34191        7.32691        0.69956
C         -1.81145        6.64951        1.81412
C         -0.97029        5.80292        2.51637
C          0.33270        5.62476        2.09223
C          2.22902       10.03048        0.23196
C          2.00119        8.32723        2.82091
C          4.77042        8.76356        1.69723
C          4.62680        8.51030       -1.94219
C          5.60189        5.89492       -0.56518
C          3.11838        6.01750       -2.64542
H          4.25748        3.60417       -1.26164
H          4.99939        2.28977       -3.21612
H          3.64469        0.38057       -4.00070
H          1.55158       -0.20450       -2.83321
H          0.80603        1.11293       -0.89692
H          0.43490        4.56025       -1.47718
H         -1.97348        4.62846       -2.00503
H         -3.58456        3.44545       -0.55656
H         -2.77784        2.17630        1.40126
H         -0.39578        2.11579        1.94024
H          0.33746        7.67393       -0.59088
H         -2.00034        7.98301        0.14909
H         -2.83404        6.78216        2.13408
H         -1.31855        5.26956        3.38698
H          0.98994        4.97670        2.65222
H          2.56006       10.95798        0.68735
H          2.53454       10.04759       -0.80782
H          1.14323       10.02836        0.25964
H          2.30095        9.11217        3.50981
H          0.92454        8.39149        2.70548
H          2.22662        7.37876        3.29732
H          5.11519        7.89480        2.25097
H          5.44260        8.90359        0.85902
H          4.87531        9.62607        2.34817
H          4.94430        9.23082       -1.19952
H          5.46411        8.34117       -2.61173
H          3.83748        8.96704       -2.53051
H          5.32513        5.15116        0.17634
H          6.12532        5.38697       -1.37013
H          6.30938        6.57379       -0.09725
H          2.28136        6.64115       -2.95050
H          3.76424        5.89604       -3.50983
H          2.72672        5.03904       -2.39364
