85
CSD_code = GUTQAN | q = 0 | S = 0 | Stoichiometry = C22H56ClNP2RuSi2 | MND = 7
Ru        -0.19209        3.15600       20.72596
Cl        -2.03246        1.63654       20.40605
P         -1.59028        4.72992       21.83869
P          1.35316        1.92593       19.40441
Si        -2.55565        4.90734       18.83401
Si         0.08900        3.97605       17.35326
N         -1.12827        3.88469       18.62092
C         -2.59734        6.33381       17.57296
H         -1.83511        7.08287       17.74964
H         -3.56080        6.82771       17.63257
H         -2.48277        5.96957       16.55956
C         -4.10528        3.84450       18.50342
H         -4.05744        2.87120       18.98088
H         -4.21343        3.68161       17.43453
H         -5.00673        4.33971       18.84926
C         -2.43796        5.75311       20.55166
H         -1.82224        6.64390       20.41973
H         -3.41197        6.07965       20.91420
C         -0.65755        6.09839       22.81044
C         -0.04886        5.46583       24.06229
H          0.68616        6.13887       24.50275
H          0.45168        4.53302       23.79607
H         -0.80335        5.25663       24.81618
C         -1.48280        7.33536       23.18553
H         -0.80283        8.15903       23.40316
H         -2.08424        7.17901       24.07263
H         -2.13295        7.65518       22.37542
C          0.50014        6.58834       21.93299
H          1.05053        7.36729       22.46043
H          0.14794        7.00773       20.99248
H          1.18880        5.77915       21.71237
C         -3.04616        4.13510       22.92840
C         -4.17225        3.63553       22.01979
H         -4.90777        3.10305       22.62261
H         -3.79591        2.94287       21.27551
H         -4.68382        4.45249       21.51601
C         -3.65634        5.17252       23.86937
H         -4.56139        4.74979       24.30711
H         -3.93937        6.07923       23.34040
H         -2.98785        5.42044       24.68812
C         -2.52630        2.95318       23.74946
H         -3.31213        2.57502       24.40290
H         -1.67292        3.23486       24.36170
H         -2.21541        2.14493       23.09182
C         -0.69046        3.45709       15.69090
H         -1.31908        4.25379       15.30965
H         -1.30690        2.56738       15.77275
H          0.07510        3.26562       14.94670
C          0.79531        5.74520       17.24741
H          0.96462        6.16659       18.23394
H          0.12991        6.40774       16.70724
H          1.74586        5.74352       16.72198
C          1.55885        2.83081       17.80424
H          1.79901        2.12870       17.00661
H          2.42621        3.47570       17.94075
C          0.93787        0.16195       18.79212
C          0.50674       -0.68102       19.99332
H          0.11994       -1.64066       19.65098
H         -0.28128       -0.18123       20.55000
H          1.33284       -0.87105       20.67193
C          2.05327       -0.56914       18.04586
H          1.62994       -1.44924       17.56064
H          2.82456       -0.91744       18.72685
H          2.50513        0.04830       17.27272
C         -0.25607        0.28756       17.83886
H         -0.58565       -0.70805       17.54094
H         -0.00017        0.83843       16.93657
H         -1.09898        0.76748       18.32953
C          3.16065        1.93136       20.03878
C          4.23866        1.58304       19.00800
H          5.21513        1.80245       19.44024
H          4.14232        2.17403       18.10098
H          4.23682        0.53398       18.74020
C          3.25379        0.98485       21.23571
H          4.15756        1.19228       21.80765
H          3.29108       -0.05509       20.92132
H          2.39116        1.13240       21.88750
C          3.45993        3.34773       20.54302
H          4.51128        3.42417       20.81860
H          2.86010        3.57183       21.42146
H          3.25166        4.10280       19.78777
H         -1.43233        2.91157       18.72783
H          0.63321        4.33292       20.24641
H         -0.05526        2.18667       21.90686
H          0.87488        3.50401       21.73003
