69
CSD_code = GUZNAS | q = 0 | S = 0 | Stoichiometry = C26H35HfI2N2PSi2 | MND = 5
I          7.61337       14.29986        5.56911
I         10.72333       11.87632        4.79683
Hf         8.49856       12.77270        3.37314
P          6.38929       13.92293        2.02629
Si         7.66493        9.49071        2.80315
Si        10.59503       14.52942        1.54546
N          7.34106       11.09950        3.34238
N          9.29492       13.39863        1.58641
C          5.21226       12.47297        2.05215
H          4.24755       12.77095        1.63202
H          5.66411       11.69253        1.42946
C          5.06967       11.98753        3.46353
C          6.16149       11.33757        4.06821
C          6.05171       10.93976        5.40240
H          6.89790       10.45240        5.86707
C          4.89164       11.16742        6.11748
H          4.83296       10.86170        7.15044
C          3.81174       11.78678        5.51126
H          2.90167       11.95929        6.06395
C          3.90761       12.19504        4.19247
H          3.06898       12.68426        3.71614
C          6.81957       13.92451        0.23186
H          5.90232       13.91189       -0.36649
H          7.36664       14.85519        0.03655
C          7.70839       12.77364       -0.14394
C          8.96497       12.62248        0.47463
C          9.86467       11.70480       -0.07352
H         10.86366       11.65461        0.33572
C          9.49949       10.88210       -1.12077
H         10.21133       10.17360       -1.51694
C          8.22770       10.96704       -1.65976
H          7.92871       10.31483       -2.46578
C          7.35187       11.92741       -1.18258
H          6.37880       12.03901       -1.64238
C          5.20520       15.30879        2.17689
C          4.99679       16.25569        1.17994
H          5.52879       16.19804        0.24234
C          4.09725       17.28806        1.38110
H          3.93777       18.01524        0.59839
C          3.40819       17.39342        2.57715
H          2.70912       18.20196        2.72820
C          3.62792       16.46568        3.58234
H          3.10726       16.54909        4.52392
C          4.52734       15.43494        3.38892
H          4.70399       14.72457        4.18384
C          9.50596        9.45496        2.30463
H          9.87997       10.44134        2.03615
H          9.63920        8.81669        1.43771
H         10.13290        9.05858        3.09725
C          6.59658        9.05225        1.27447
H          5.53515        9.13856        1.49013
H          6.78228        8.02694        0.97289
H          6.82207        9.68568        0.42018
C          7.34019        8.15506        4.12846
H          7.99716        8.25657        4.98728
H          7.49910        7.16599        3.71178
H          6.31625        8.20078        4.48680
C         12.38354       13.84872        1.58501
H         12.53594       13.07690        2.33445
H         13.08169       14.65017        1.80572
H         12.66455       13.43451        0.62053
C         10.43031       15.64296        0.00455
H         11.32436       16.23955       -0.13466
H          9.58940       16.32568        0.07959
H         10.29241       15.04192       -0.88919
C         10.23732       15.54795        3.12860
H          9.19250       15.86198        3.18300
H         10.83237       16.45561        3.12255
H         10.50198       15.02100        4.04597
