122
CSD_code = HAFCIB | q = 0 | S = 0 | Stoichiometry = C60H53Cl2N2O2Si2Ta | MND = 6
Ta        -1.92019       10.51595        2.87401
Cl        -3.99079       10.14550        2.04250
Cl        -1.73853        8.25618        3.24096
Si         0.95076        9.17574        5.83550
Si        -3.98321       13.89752        1.36211
O         -0.36654       10.83087        3.77393
O         -2.33300       12.36416        3.09333
N         -1.00184       10.41287        1.10841
N         -2.93735       10.36034        5.25054
C          0.24037       11.64851        4.62148
C          0.93284       11.06633        5.71413
C          1.49697       11.88032        6.65909
C          1.35170       13.28029        6.60224
C          1.85517       14.11230        7.62370
C          1.67006       15.46502        7.58154
C          0.95325       16.03743        6.52031
C          0.47115       15.25979        5.50475
C          0.67748       13.86233        5.49553
C          0.19360       13.02854        4.44552
C         -1.58165       13.38706        2.69171
C         -2.14616       14.21194        1.68582
C         -1.39075       15.18959        1.10325
C         -0.03738       15.36911        1.45623
C          0.77968       16.30152        0.78592
C          2.09398       16.45700        1.12620
C          2.64492       15.66859        2.14594
C          1.87266       14.76835        2.82674
C          0.50330       14.60336        2.52339
C         -0.32035       13.65779        3.20788
C          2.38881        8.75252        7.00828
C          3.67721        9.20255        6.73328
C          4.74041        8.88190        7.55684
C          4.53424        8.09417        8.67726
C          3.26130        7.63176        8.96326
C          2.20316        7.95945        8.13410
C         -0.63361        8.67934        6.77214
C         -1.01003        9.42626        7.89067
C         -2.11789        9.08136        8.64373
C         -2.87584        7.97522        8.29359
C         -2.51545        7.21983        7.19036
C         -1.40307        7.56570        6.44062
C          1.31324        8.17438        4.27244
C          1.31140        6.78314        4.34839
C          1.57552        6.00564        3.23725
C          1.87022        6.60802        2.02625
C          1.91334        7.98857        1.94289
C          1.63634        8.76334        3.05534
C         -4.88197       13.62897        3.01651
C         -4.56657       14.44369        4.10212
C         -5.21754       14.31019        5.31542
C         -6.20450       13.35019        5.47033
C         -6.51877       12.52002        4.40803
C         -5.86319       12.65920        3.19580
C         -4.64822       15.53666        0.64975
C         -5.38719       15.57609       -0.52699
C         -5.87292       16.76904       -1.03259
C         -5.62596       17.95677       -0.36635
C         -4.88804       17.94003        0.80522
C         -4.40783       16.74256        1.30224
C         -4.26473       12.58741        0.02883
C         -5.54728       12.16370       -0.30790
C         -5.75511       11.25520       -1.32896
C         -4.67966       10.77071       -2.05340
C         -3.39987       11.19978       -1.74776
C         -3.19618       12.09237       -0.71066
C         -1.27519        9.36059        0.14995
C          0.18884       11.14926        0.74651
C         -4.26614        9.74657        5.26211
C         -2.92575       11.60052        6.02538
H          2.05118       11.44547        7.47871
H          2.38259       13.65102        8.44653
H          2.05752       16.09713        8.36671
H          0.78029       17.10349        6.51153
H         -0.09065       15.71163        4.70214
H         -1.82763       15.83087        0.35098
H          0.34225       16.88421       -0.01227
H          2.71550       17.17205        0.60788
H          3.69183       15.77280        2.39079
H          2.31846       14.15760        3.59713
H         -2.30063        9.70259        5.70994
H          3.84388        9.81699        5.85949
H          5.73229        9.24431        7.32667
H          5.36242        7.84113        9.32338
H          3.09372        7.01430        9.83438
H          1.21240        7.59571        8.36594
H         -0.42114       10.28804        8.17195
H         -2.38783        9.67115        9.50842
H         -3.74014        7.70183        8.88159
H         -3.10008        6.35516        6.91323
H         -1.14180        6.97612        5.57714
H          1.10634        6.30443        5.29501
H          1.55451        4.92821        3.31409
H          2.07406        6.00426        1.15366
H          2.17042        8.45969        1.00385
H          1.67289        9.83958        2.97690
H         -3.78974       15.18788        4.00011
H         -4.95545       14.95493        6.14272
H         -6.71928       13.24690        6.41482
H         -7.28241       11.76309        4.52201
H         -6.10948       11.99180        2.38564
H         -5.58047       14.65677       -1.05969
H         -6.44436       16.77320       -1.95006
H         -6.00313       18.89025       -0.75864
H         -4.68639       18.86324        1.33011
H         -3.82704       16.74422        2.21286
H         -6.39633       12.55696        0.23218
H         -6.75780       10.92970       -1.56674
H         -4.83901       10.06639       -2.85714
H         -2.56191       10.83927       -2.32775
H         -2.19610       12.42710       -0.47254
H          1.02795       10.46806        0.56583
H          0.45528       11.83441        1.55176
H          0.03124       11.73994       -0.16520
H         -1.00416        9.66752       -0.86276
H         -2.33679        9.10883        0.16726
H         -0.69963        8.46070        0.40896
H         -4.61469        9.56823        6.28547
H         -4.22369        8.79872        4.72708
H         -4.96833       10.40827        4.75544
H         -3.54263       12.34284        5.51986
H         -1.90650       11.97903        6.09340
H         -3.31363       11.44353        7.03844
