67
CSD_code = HIJNUK | q = 0 | S = 0 | Stoichiometry = C24H40Si2Ti | MND = 12
Ti         4.61334        9.67220       10.81087
Si         5.06228       12.46079       10.37560
Si         2.55644        8.44101        8.21192
C          3.59417       11.57787       11.21663
C          3.82862       10.81764       12.44757
C          2.57107       10.48957       12.99993
C          1.57719       11.02238       12.16590
C          2.19007       11.66404       11.07536
C          5.14119       10.26082       12.73394
H          5.18360        9.60091       13.60224
H          5.98156       10.96128       12.72733
C          2.33118        9.81161       14.31402
H          3.27045        9.49374       14.76321
H          1.68517        8.93888       14.20389
H          1.84132       10.49652       15.00896
C          0.09995       10.94482       12.39439
H         -0.14375       10.16979       13.11814
H         -0.43053       10.73231       11.46550
H         -0.27852       11.89495       12.77712
C          1.44019       12.38611       10.00093
H          2.11791       12.78100        9.25076
H          0.87598       13.21692       10.42947
H          0.72368       11.72639        9.50881
C          6.03388       10.89139        9.90114
H          7.02161       10.81941       10.37278
H          6.15727       10.77058        8.82077
C          5.92194       13.65596       11.61308
H          6.91155       13.93313       11.26251
H          6.02915       13.21596       12.59890
H          5.34633       14.56943       11.72604
C          4.64488       13.56709        8.86559
H          5.55259       14.04546        8.51379
H          3.94624       14.35259        9.13048
H          4.22870       13.00913        8.03434
C          3.75165        8.01077        9.60314
C          5.18175        7.96072        9.46888
C          5.73411        7.62341       10.72818
C          4.66142        7.45167       11.64801
C          3.44890        7.68426       10.95921
C          5.94306        7.98849        8.17482
H          5.42404        8.57808        7.42288
H          6.05044        6.96993        7.79232
H          6.94363        8.39968        8.30948
C          7.18417        7.38892       11.04042
H          7.45927        7.85783       11.98776
H          7.82228        7.79734       10.25834
H          7.38788        6.31838       11.12072
C          4.80216        6.90077       13.03777
H          5.78270        7.12966       13.45245
H          4.69571        5.81271       13.01484
H          4.04000        7.29852       13.70606
C          2.07350        7.46392       11.51829
H          1.50154        8.39275       11.55963
H          2.13329        7.05201       12.52376
H          1.52599        6.75428       10.89720
C          0.72686        8.60715        8.74263
H          0.14084        8.99548        7.91466
H          0.60947        9.28960        9.57820
H          0.29247        7.65449        9.02522
C          2.62379        7.13469        6.81333
H          1.94805        7.40712        6.00891
H          2.32541        6.15527        7.17410
H          3.61724        7.03688        6.38909
C          3.08058       10.16522        7.54509
H          2.23022       10.71876        7.15785
H          3.80683       10.09569        6.73983
H          3.52602       10.75313        8.35192
