100
CSD_code = HILPEA | q = 0 | S = 0 | Stoichiometry = C37H57HfN3Si2 | MND = 5
Hf         7.63251       14.70570       15.44198
C          8.13277       11.55855       12.25508
H          8.21177       10.67737       12.88749
H          9.05576       11.65872       11.68177
H          7.31673       11.40602       11.54887
C          7.89879       12.78191       13.09955
C          7.65646       14.03948       12.52382
C          7.68193       14.32112       11.15831
H          7.96616       13.54864       10.46040
C          7.33933       15.57882       10.69468
H          7.35820       15.79473        9.63776
C          6.94529       16.56430       11.60153
H          6.65173       17.53752       11.24074
C          6.92402       16.28853       12.95884
C          6.45264       17.18479       13.95860
C          5.88505       18.52804       13.59593
H          5.52916       19.03793       14.48796
H          5.05321       18.42452       12.89990
H          6.64685       19.14699       13.12193
N          7.90662       12.73000       14.45410
N          7.31111       15.04505       13.44166
N          6.50327       16.73915       15.21504
C          7.69101       11.50935       15.10991
C          8.72210       10.89074       15.82871
C          8.46232        9.71122       16.51041
H          9.26031        9.23495       17.06229
C          7.20420        9.14109       16.48465
H          7.01402        8.21950       17.01431
C          6.18353        9.75569       15.77914
H          5.20547        9.30081       15.77110
C          6.40177       10.93741       15.09064
C         10.11256       11.46379       15.82381
H         10.06175       12.53524       15.60886
H         10.56547       11.31971       16.80721
C         10.98738       10.78191       14.76990
H         10.59435       10.96890       13.77445
H         11.01446        9.70650       14.93385
H         12.00489       11.16424       14.81659
C          5.29972       11.64343       14.33837
H          5.32997       11.33616       13.28806
H          5.50333       12.72689       14.36216
C          3.89727       11.39853       14.88737
H          3.18834       12.05263       14.38406
H          3.86184       11.60854       15.95396
H          3.57739       10.37258       14.72292
C          5.81045       17.41014       16.24027
C          4.45918       17.08757       16.45894
C          3.79709       17.67634       17.52459
H          2.76164       17.44018       17.71200
C          4.44334       18.57808       18.35068
H          3.91286       19.02694       19.17720
C          5.75995       18.92132       18.10690
H          6.24391       19.64791       18.74035
C          6.45887       18.35069       17.05365
C          3.76145       16.14587       15.50679
H          4.50617       15.45346       15.08787
H          3.36751       16.73234       14.66929
C          2.62477       15.33770       16.12566
H          2.28077       14.58685       15.41769
H          1.77736       15.97017       16.37813
H          2.96106       14.83057       17.02717
C          7.87218       18.75395       16.72246
H          8.33985       17.93018       16.17603
H          7.83644       19.61173       16.04126
C          8.73375       19.11604       17.92835
H          9.77197       19.21969       17.61945
H          8.67467       18.33982       18.68695
H          8.42217       20.05802       18.37315
C          6.29610       13.96406       17.07730
H          5.40161       14.59637       17.10412
H          5.95265       12.95512       16.81790
Si         6.98151       13.89885       18.82573
C          7.54196       15.64198       19.38811
H          8.50031       15.90809       18.95444
H          7.64730       15.69512       20.46730
H          6.81950       16.39683       19.09227
C          5.70422       13.29617       20.12701
H          4.84985       13.96450       20.17694
H          6.13462       13.24303       21.12231
H          5.33151       12.30663       19.88040
C          8.46375       12.69235       18.92789
H          8.17685       11.69923       18.59724
H          8.83624       12.60615       19.94378
H          9.28678       13.02077       18.30119
C          9.64438       15.36097       16.18583
H          9.51905       16.17593       16.90784
H         10.11973       14.54599       16.74574
Si        10.80669       15.91960       14.81356
C         11.03683       14.52220       13.52427
H         11.66837       13.72705       13.90710
H         11.50430       14.89683       12.61861
H         10.08191       14.08552       13.24420
C         12.56624       16.39361       15.41943
H         12.53255       17.21514       16.12823
H         13.20444       16.69944       14.59640
H         13.05110       15.55823       15.91474
C         10.12639       17.46645       13.90948
H          9.08522       17.33496       13.62916
H         10.68702       17.66123       13.00030
H         10.19718       18.35565       14.52793
