110
CSD_code = HITSOT | q = 0 | S = 0 | Stoichiometry = C31H72MoNO2PSi2 | MND = 4
Mo         1.10309        4.87319        8.88432
Si        -0.49656        2.42489        7.75394
Si         2.18284        4.10406       12.34549
P         -0.48723        6.56635        9.40521
O         -0.36888        3.56056        8.85227
O          1.60459        4.22958       10.87983
N          2.38661        5.93999        8.41997
C          3.38879        6.73291        7.83095
C          4.02862        7.67299        8.86783
H          3.26572        8.30864        9.30994
H          4.78569        8.29561        8.39710
H          4.48747        7.08862        9.65956
C          4.47363        5.80191        7.25395
H          4.86153        5.16585        8.04707
H          5.28919        6.38313        6.83122
H          4.04824        5.17022        6.47581
C          2.77541        7.57735        6.69540
H          2.00202        8.22499        7.10450
H          2.32718        6.92788        5.94604
H          3.53806        8.19106        6.22267
C         -0.10769        8.10806       10.32218
H         -0.98259        8.75740       10.34933
H          0.70696        8.61513        9.80868
H          0.21128        7.87397       11.33082
C         -1.96320        5.93030       10.27427
H         -2.67930        6.72826       10.47050
H         -1.65130        5.46920       11.20913
H         -2.42249        5.16184        9.65326
C         -1.30703        7.37555        7.94925
H         -2.04677        8.10599        8.27394
H         -1.79632        6.62687        7.33003
H         -0.54724        7.87865        7.35219
C          1.22121        1.49239        7.90361
C          2.33494        2.52042        7.71758
H          3.30034        2.09374        7.99819
H          2.15493        3.39636        8.40633
H          2.41561        2.85934        6.68620
C          1.38404        0.98985        9.33810
H          2.39377        0.60494        9.48840
H          0.69228        0.19123        9.57536
H          1.22280        1.81862       10.02865
C          1.43441        0.32210        6.94397
H          2.40686       -0.13939        7.12020
H          1.39325        0.63618        5.90487
H          0.67247       -0.43782        7.09766
C         -2.07314        1.32480        8.05866
C         -1.83351        0.29615        9.16498
H         -2.76841       -0.21175        9.40655
H         -1.46902        0.77621       10.06890
H         -1.12361       -0.46298        8.84766
C         -2.49496        0.55583        6.80748
H         -3.33939       -0.09535        7.03579
H         -1.68095       -0.06530        6.44115
H         -2.80108        1.22349        6.00754
C         -3.23364        2.20243        8.53457
H         -4.09541        1.58255        8.78428
H         -3.54520        2.91408        7.77752
H         -2.93976        2.75036        9.42676
C         -0.59924        3.47026        6.07195
C         -0.26542        2.69315        4.79683
H         -0.41933        3.32279        3.91901
H         -0.89944        1.81710        4.69801
H          0.77119        2.36616        4.79215
C         -2.00806        4.04894        5.91642
H         -2.04685        4.75143        5.08104
H         -2.30552        4.57299        6.82270
H         -2.73514        3.26817        5.71767
C          0.35922        4.65930        6.17588
H          0.03683        5.47354        5.52186
H          1.37166        4.39271        5.87849
H          0.36396        5.08816        7.21964
C          2.10579        5.89565       13.15787
C          2.63226        6.90956       12.13583
H          2.33378        7.92345       12.41080
H          2.25043        6.67161       11.14230
H          3.71472        6.89694       12.09646
C          2.88609        6.08077       14.45915
H          2.74114        7.09260       14.84301
H          3.95114        5.93853       14.29913
H          2.55940        5.38099       15.22260
C          0.64543        6.26450       13.42636
H          0.55569        7.32010       13.69509
H          0.22932        5.68767       14.24613
H          0.05427        6.07376       12.53468
C          4.04297        3.48235       12.22429
C          4.92773        4.58964       11.64845
H          5.90884        4.19216       11.37972
H          5.08486        5.38610       12.36895
H          4.46184        5.00118       10.75436
C          4.64582        3.02762       13.55276
H          5.68996        2.74038       13.41484
H          4.11560        2.16783       13.95229
H          4.60951        3.82030       14.29390
C          4.13130        2.32805       11.22555
H          5.17143        2.02838       11.07931
H          3.72797        2.65708       10.27099
H          3.57645        1.46010       11.56131
C          1.02608        2.83527       13.31162
C          1.07284        3.00377       14.83118
H          0.43788        2.25631       15.31086
H          0.72102        3.98110       15.14416
H          2.08638        2.87081       15.20091
C          1.38607        1.37313       13.03857
H          0.67335        0.71568       13.54167
H          2.37499        1.13085       13.41623
H          1.35095        1.15074       11.97909
C         -0.41385        3.03167       12.82574
H         -1.05788        2.23042       13.19263
H         -0.44557        3.03237       11.73662
H         -0.82089        3.97429       13.17803
