69
CSD_code = HUCMEX | q = 0 | S = 0 | Stoichiometry = C26H37MoN3Si2 | MND = 7
Mo        11.02217        3.50348       -3.72379
Si         9.68984        0.73298       -5.10746
Si         9.01795        5.62134       -2.04968
N         11.00154        2.54252       -2.26752
N          9.63376        2.44042       -4.77729
N          9.31507        4.56222       -3.39640
C         10.72887        1.79155       -1.19854
C         11.72786        1.20728       -0.40303
H         12.76353        1.37630       -0.66550
C         11.38918        0.43364        0.68818
H         12.16872       -0.01017        1.29157
C         10.05951        0.22231        1.01662
H          9.80196       -0.38303        1.87283
C          9.06017        0.79288        0.23884
H          8.02277        0.62764        0.49372
C          9.38118        1.56667       -0.85367
H          8.62657        2.02542       -1.48151
C          8.53984        3.19847       -5.13955
C          8.36421        4.37372       -4.37242
C          7.29337        5.21488       -4.64516
H          7.15545        6.10941       -4.05840
C          6.41311        4.91700       -5.67524
H          5.59186        5.58661       -5.88562
C          6.58724        3.77223       -6.42940
H          5.90397        3.54133       -7.23380
C          7.64222        2.91205       -6.15910
H          7.77059        2.01916       -6.75060
C          8.05523       -0.11123       -4.58684
H          7.90469       -0.01255       -3.51588
H          8.07134       -1.17007       -4.82394
H          7.19471        0.32773       -5.07937
C         11.10353       -0.04197       -4.08951
H         11.94353        0.63751       -3.98050
H         11.46076       -0.95413       -4.55536
H         10.76413       -0.29344       -3.09110
C         10.07711        0.30463       -6.94605
H          9.36962        0.74231       -7.64288
H         10.03944       -0.77130       -7.08570
H         11.07012        0.63103       -7.24246
C          7.27487        5.29931       -1.32234
H          6.62274        6.15890       -1.43710
H          7.33037        5.07020       -0.26316
H          6.79947        4.45983       -1.82009
C         10.32003        5.25637       -0.70721
H         10.10878        4.31730       -0.20766
H         10.31939        6.03812        0.04525
H         11.32310        5.18624       -1.11902
C          9.19922        7.47700       -2.53897
H         10.17357        7.87070       -2.26445
H          8.45734        8.08461       -2.03051
H          9.07045        7.63168       -3.60615
C         11.59373        4.23893       -6.01357
C         12.35935        3.13767       -5.44368
H         12.58568        2.30317       -6.10204
C         13.30959        3.45534       -4.41222
C         13.11397        4.60644       -3.66524
H         13.81162        4.86581       -2.87025
C         12.00152        5.46832       -3.94305
H         11.95330        6.43077       -3.44480
C         11.42589        5.36925       -5.27062
H         10.85807        6.20951       -5.65894
C         11.01996        4.07954       -7.38989
H         10.34359        3.22574       -7.41873
H         11.81787        3.90532       -8.11403
H         10.46408        4.96692       -7.68660
C         14.48130        2.54666       -4.16718
H         15.27004        2.76083       -4.89211
H         14.19603        1.50153       -4.28278
H         14.88920        2.68876       -3.16762
