137
CSD_code = IDEPAI | q = 0 | S = 0 | Stoichiometry = C47H82LaN3O2Si2 | MND = 4
La         3.18354        3.08216       16.92673
Si         4.24118        6.74253       13.38813
Si         2.17640        7.97274       15.42095
O          3.02499        3.19726       18.98563
O          3.32608        1.37294       15.76475
N          4.10850        5.19217       16.42621
N          2.25381        4.55926       15.35240
N          3.19397        6.68755       14.79513
C          5.06616        6.17571       16.89183
C          4.70232        6.61305       18.31861
C          5.73212        7.58781       18.88029
C          7.12213        6.96074       18.87359
C          7.49936        6.54120       17.45677
C          6.47177        5.56295       16.89642
C          3.18544        5.48127       15.52371
C          1.29635        4.61456       14.26558
C          1.74622        3.68029       13.13179
C          0.71236        3.61755       12.01244
C         -0.63688        3.15778       12.55383
C         -1.10315        4.10025       13.65819
C         -0.07374        4.15943       14.78229
C          5.28719        5.15008       13.29650
C          3.23042        6.92255       11.77740
C          5.40690        8.25220       13.47649
C          3.20163        9.38928       16.19225
C          1.01300        7.27126       16.75671
C          1.14651        8.73230       14.00621
C          2.52769        2.52783       20.01011
C          3.31241        1.55000       20.68684
C          2.71818        0.78364       21.67546
C          1.40017        0.97223       22.04222
C          0.67076        1.99342       21.46545
C          1.20801        2.79890       20.47556
C          4.78592        1.34361       20.33312
C          5.53191        2.68626       20.35768
C          4.89487        0.71173       18.93933
C          5.50761        0.41089       21.31563
C          0.41523        3.98899       19.93230
C         -0.89196        4.22784       20.70195
C          1.26072        5.26285       20.07516
C          0.03146        3.77476       18.45963
C          3.77969        0.13893       15.89757
C          5.12416       -0.17560       15.54422
C          5.60428       -1.44689       15.81029
C          4.79962       -2.42211       16.36606
C          3.46730       -2.15175       16.60965
C          2.92659       -0.89934       16.37154
C          6.00991        0.85558       14.84232
C          6.35301        2.02372       15.78140
C          5.28300        1.37897       13.59507
C          7.34465        0.26179       14.36879
C          1.43702       -0.64362       16.60570
C          0.65631       -1.92623       16.92417
C          1.24749        0.30852       17.79560
C          0.80924       -0.03545       15.34267
H          5.05850        7.05555       16.23546
H          3.71099        7.07033       18.31096
H          4.65403        5.72183       18.95119
H          5.74580        8.49614       18.27239
H          5.45476        7.87054       19.89821
H          7.85547        7.67151       19.26097
H          7.12656        6.08374       19.52454
H          7.54446        7.42623       16.81724
H          8.48887        6.07823       17.45518
H          6.45236        4.65660       17.51203
H          6.74324        5.27796       15.87874
H          1.21490        5.63956       13.87815
H          2.70485        4.02693       12.74323
H          1.89717        2.68144       13.55103
H          0.59896        4.60705       11.56130
H          1.05554        2.93360       11.23313
H         -1.37445        3.13090       11.74863
H         -0.53974        2.14718       12.95620
H         -1.24575        5.10143       13.24370
H         -2.06360        3.76426       14.05579
H          0.04017        3.16602       15.23113
H         -0.41181        4.84512       15.56100
H          5.21851        4.68732       12.31624
H          6.33741        5.35639       13.48144
H          4.95434        4.42447       14.03311
H          2.77643        7.90427       11.70241
H          3.88256        6.80371       10.91739
H          2.43877        6.18656       11.69095
H          5.99885        8.27870       14.38592
H          6.09702        8.22980       12.63905
H          4.85313        9.18285       13.41097
H          3.64342        9.11341       17.14391
H          4.00403        9.71322       15.53885
H          2.56109       10.24820       16.36879
H          0.83179        8.00079       17.54085
H          0.04899        6.99686       16.33928
H          1.44132        6.38340       17.21256
H          0.38418        9.38586       14.41779
H          1.76601        9.33441       13.35045
H          0.64577        7.98707       13.39729
H          3.27890        0.01507       22.18067
H          0.95248        0.34599       22.79954
H         -0.33778        2.15009       21.80991
H          6.58489        2.53574       20.12197
H          5.10752        3.38007       19.63352
H          5.45892        3.13387       21.34702
H          4.35780       -0.23470       18.90269
H          4.47131        1.38558       18.18104
H          5.93714        0.51675       18.68926
H          5.11726       -0.60228       21.26238
H          6.56478        0.37089       21.05899
H          5.42196        0.77509       22.33648
H         -0.70108        4.36846       21.76273
H         -1.36838        5.13087       20.32416
H         -1.58968        3.40419       20.57049
H          2.18200        5.17966       19.50410
H          0.70413        6.12810       19.71972
H          1.51674        5.42072       21.12107
H         -0.53047        2.84775       18.34877
H         -0.59552        4.59923       18.12107
H          0.92358        3.74056       17.81354
H          6.62642       -1.70303       15.58660
H          5.20281       -3.40046       16.58130
H          2.85245       -2.94660       16.99763
H          6.85024        1.65232       16.67725
H          7.02723        2.71513       15.27630
H          5.44900        2.58539       16.07295
H          5.90898        2.09458       13.06536
H          5.05829        0.55132       12.92513
H          4.34932        1.86478       13.86709
H          7.96484       -0.04783       15.20667
H          7.18250       -0.58848       13.71142
H          7.89364        1.01797       13.81030
H         -0.40357       -1.68946       16.99934
H          0.78040       -2.66600       16.13718
H          0.96712       -2.35627       17.87304
H          1.70700       -0.10111       18.69420
H          1.70092        1.28921       17.58234
H          0.18616        0.45527       17.99486
H          1.30105        0.89885       15.08057
H          0.91404       -0.72524       14.50735
H         -0.25104        0.15717       15.50268
