130
CSD_code = IHUWUE | q = 0 | S = 0 | Stoichiometry = C53H67FeN7Si2 | MND = 6
C          3.56952        2.37087       13.04198
C          3.64846        2.14886       14.42430
C          3.64831        0.83620       14.88021
H          3.71269        0.64383       15.93924
C          3.56224       -0.22750       14.00707
H          3.57938       -1.23946       14.38352
C          3.41515        0.00788       12.65511
H          3.30061       -0.82464       11.98181
C          3.40298        1.30087       12.15463
C          3.64589        3.25859       15.45368
H          3.83790        4.21481       14.96110
C          4.71716        3.07145       16.53077
H          4.48312        2.23486       17.18332
H          4.77642        3.96801       17.14464
H          5.68963        2.89781       16.07799
C          2.26617        3.32724       16.12057
H          1.47412        3.46155       15.38751
H          2.23071        4.15801       16.82208
H          2.06372        2.40746       16.66422
C          3.08724        1.55715       10.70406
H          3.62236        2.45640       10.40013
C          1.57802        1.79793       10.57280
H          1.32207        2.00573        9.53679
H          1.25897        2.64171       11.18103
H          1.02781        0.91633       10.89664
C          3.52326        0.43690        9.76445
H          4.56016        0.17441        9.95659
H          3.44476        0.78252        8.73616
H          2.89626       -0.44497        9.87223
C          4.63255        4.31032       11.87957
C          2.64667        4.64023       12.87656
H          1.73851        4.36091       13.36958
C          3.06380        5.85172       12.45548
H          2.60076        6.81317       12.52526
C          5.24846        6.53338       11.43369
C          5.20509        7.91499       11.43680
H          4.31792        8.43977       11.74861
C          6.33915        8.60478       11.03014
H          6.33913        9.68253       11.03006
C          7.92478        5.78941       13.54525
C          7.12410        6.80575       14.07467
C          7.58484        8.11375       14.13634
H          6.93685        8.88322       14.53611
C          8.85029        8.45900       13.69523
C          9.67635        7.43863       13.25121
H         10.68937        7.67466       12.95015
C          9.23490        6.12601       13.18252
C          5.77758        6.52361       14.67243
H          5.17401        7.42897       14.71585
H          5.90920        6.15325       15.68990
H          5.23968        5.76492       14.12027
C          9.33425        9.87744       13.73816
H          8.50127       10.56847       13.84620
H          9.88295       10.12625       12.83103
H         10.00782       10.02040       14.58394
C         10.22339        5.07458       12.77808
H         11.13839        5.52654       12.39889
H          9.82015        4.40979       12.02384
H         10.47661        4.46389       13.64403
N          3.60798        3.70886       12.54771
N          4.28872        5.65029       11.86610
N          6.33915        5.85453       11.03021
N          6.33932        2.33781       11.03054
N          6.33947        1.21372       11.03020
Si         7.21777        4.06438       13.12764
Fe         6.33932        4.00718       11.03065
H          8.28917        3.12917       13.54325
H          6.27836        3.73837       14.22446
C          9.10860        2.37087        9.01825
C          9.02962        2.14889        7.63593
C          9.02968        0.83623        7.18002
H          8.96520        0.64387        6.12099
C          9.11574       -0.22748        8.05315
H          9.09847       -1.23944        7.67670
C          9.26295        0.00788        9.40511
H          9.37747       -0.82464       10.07839
C          9.27519        1.30088        9.90559
C          9.03232        3.25863        6.60658
H          8.84038        4.21485        7.09917
C          7.96099        3.07162        5.52953
H          8.19495        2.23501        4.87697
H          7.90185        3.96818        4.91566
H          6.98850        2.89810        5.98233
C         10.41205        3.32718        5.93970
H         11.20413        3.46139        6.67275
H         10.44760        4.15797        5.23821
H         10.61441        2.40741        5.39601
C          9.59105        1.55718       11.35614
H          9.05593        2.45641       11.66018
C         11.10030        1.79790       11.48728
H         11.35635        2.00568       12.52327
H         11.41930        2.64169       10.87904
H         11.65049        0.91631       11.16337
C          9.15512        0.43687       12.29573
H          8.11819        0.17441       12.10367
H          9.23373        0.78244       13.32403
H          9.78209       -0.44501       12.18786
C          8.04563        4.31030       10.18075
C         10.03149        4.64022        9.18364
H         10.93966        4.36089        8.69063
C          9.61441        5.85169        9.60477
H         10.07748        6.81313        9.53502
C          7.42983        6.53336       10.62668
C          7.47320        7.91498       10.62351
H          8.36035        8.43974       10.31159
C          4.75359        5.78948        8.51522
C          5.55415        6.80580        7.98563
C          5.09333        8.11375        7.92381
H          5.74133        8.88323        7.52410
C          3.82784        8.45896        8.36485
C          3.00183        7.43859        8.80896
H          1.98880        7.67459        9.10998
C          3.44341        6.12602        8.87786
C          6.90071        6.52367        7.38794
H          7.50432        7.42900        7.34469
H          6.76917        6.15345        6.37041
H          7.43851        5.76488        7.94004
C          3.34383        9.87738        8.32183
H          4.17679       10.56844        8.21385
H          2.79501       10.12621        9.22888
H          2.67036       10.02025        7.47597
C          2.45488        5.07457        9.28219
H          1.53982        5.52650        9.66128
H          2.85806        4.40987       10.03654
H          2.20178        4.46380        8.41626
N          9.07015        3.70887        9.51249
N          8.38953        5.65026       10.19423
Si         5.46120        4.06454        8.93219
H          4.38969        3.12942        8.51660
H          6.39987        3.73788        7.83494
