84
CSD_code = IKECEG | q = 0 | S = 0 | Stoichiometry = C33H44N4Si2W | MND = 6
W          7.04425        2.50714        7.44981
N          5.92437        3.04108        8.74827
N          8.65191        3.76714        7.44292
N          6.37011        3.60493        5.83728
N          8.31795        1.46093        5.83523
Si         8.98981        4.81038        8.77685
Si         4.76037        4.23710        5.83317
C          5.04346        3.31724        9.72114
C          4.07203        2.36753       10.11011
C          3.15986        2.64979       11.10229
C          3.17396        3.87647       11.75000
C          4.12288        4.82146       11.39000
C          5.04224        4.55575       10.39910
C          8.22392        1.20479        8.79078
C          9.60483        0.97397        8.62186
C         10.39186        0.29921        9.54209
C          9.83224       -0.19009       10.70873
C          8.48436        0.02124       10.93817
C          7.71395        0.70012       10.00675
C          5.83765        0.77780        6.77278
C          5.45711        0.66674        5.41851
C          4.74448       -0.40496        4.90624
C          4.36649       -1.44758        5.73375
C          4.71633       -1.39351        7.07045
C          5.43398       -0.31436        7.56544
C          8.38671        0.12312        5.76868
C          8.71320       -0.56807        4.62087
C          8.95905        0.15679        3.46234
C          8.93886        1.53552        3.53315
C          8.64149        2.16713        4.74255
C          8.71708        3.65893        4.92242
C          9.49879        4.33988        3.79152
C          9.44941        3.96469        6.25963
C          7.29176        4.26834        4.95052
C          8.02519        6.46479        8.57599
C         10.85271        5.27843        8.84369
C          8.60667        3.97743       10.44950
C          4.57262        5.86262        6.84278
C          4.21935        4.67827        4.03964
C          3.48112        2.98264        6.48937
H          4.05927        1.41195        9.60161
H          2.42522        1.90556       11.37817
H          4.14362        5.77925       11.89206
H          5.78965        5.28808       10.12891
H         10.10307        1.34561        7.72742
H         10.43892       -0.71776       11.43097
H          8.03186       -0.33887       11.85227
H          6.66674        0.86332       10.24991
H          5.72078        1.46653        4.72658
H          4.48074       -0.42643        3.85685
H          3.80910       -2.28677        5.34280
H          4.43017       -2.19826        7.73415
H          5.69238       -0.33150        8.61936
H          8.18423       -0.41347        6.68968
H          8.75766       -1.64477        4.62971
H          9.18072       -0.34207        2.53101
H          9.15506        2.11610        2.65274
H          9.59009        5.40271        4.00375
H         10.50002        3.92199        3.70707
H          8.98760        4.24191        2.83659
H         10.36596        3.34419        6.29270
H          9.78836        5.00711        6.19203
H          7.41208        5.33008        5.23271
H          6.91285        4.25337        3.91462
H          8.60201        4.71823       11.24229
H          9.35065        3.22952       10.70498
H          7.63632        3.49105       10.43846
H          3.58425        6.28881        6.70112
H          4.69412        5.66796        7.90466
H          5.29558        6.61878        6.54885
H         11.44793        0.15838        9.35086
H          2.45563        4.09200       12.52683
H          7.99157        7.02481        9.50509
H          8.48403        7.10762        7.82891
H          7.00358        6.26940        8.26088
H         11.07126        5.85710        9.73456
H         11.48208        4.39398        8.86749
H         11.15748        5.87462        7.98923
H          3.15908        4.90405        4.01032
H          4.74525        5.54947        3.66187
H          4.39385        3.85971        3.34705
H          2.57891        3.50954        6.78084
H          3.85824        2.45991        7.36315
H          3.20369        2.24129        5.74784
