55
CSD_code = ILOMAZ | q = 0 | S = 0 | Stoichiometry = C17H31FeN3OSi2 | MND = 4
Fe         3.79881        6.78327        2.50838
Si         3.90314        8.78926        0.35520
Si         2.05172        9.11814        2.90804
O          5.07083        7.99516        3.27020
N          4.64315        5.24122        3.32391
N          2.60451        5.55867        1.79784
N          2.88397        8.34319        1.64243
C          6.91771        8.83447        4.50074
H          6.57316        9.76262        4.05310
H          7.95598        8.66394        4.22554
H          6.85982        8.91782        5.58411
C          6.04841        7.68875        4.01936
C          6.38544        6.40951        4.43562
H          7.24804        6.31161        5.07585
C          5.70194        5.23218        4.09714
C          6.23257        3.93752        4.65874
H          5.47263        3.44468        5.26515
H          7.10644        4.11780        5.27676
H          6.50991        3.25749        3.85324
C          3.98091        4.00024        3.00832
H          3.62360        3.49993        3.92012
H          4.66510        3.30385        2.50237
C          2.80951        4.26835        2.11157
C          1.99743        3.25025        1.64136
H          2.20547        2.22883        1.92262
C          0.92785        3.55763        0.81496
H          0.28169        2.78172        0.43571
C          0.71667        4.89377        0.49263
H         -0.10143        5.18614       -0.14610
C          1.56891        5.84988        1.00011
H          1.46432        6.90305        0.79115
C          5.20847       10.15155        0.66694
H          4.72583       11.10109        0.87244
H          5.87185       10.29444       -0.18102
H          5.81244        9.89549        1.52944
C          2.87841        9.30257       -1.17550
H          2.19546        8.51897       -1.48400
H          3.51855        9.53704       -2.01901
H          2.28797       10.18403       -0.95425
C          4.82469        7.14383       -0.02274
H          5.23000        6.72409        0.90806
H          5.65962        7.27864       -0.70143
H          4.15570        6.40920       -0.46031
C          0.34351        9.74228        2.31684
H          0.46405       10.49830        1.54974
H         -0.21873       10.18539        3.13162
H         -0.25466        8.94117        1.89707
C          2.92320       10.56370        3.80677
H          3.90681       10.25363        4.13956
H          2.36669       10.91241        4.67178
H          3.05227       11.40634        3.13573
C          1.79761        7.68512        4.16560
H          1.09120        6.95181        3.78890
H          1.43529        8.03175        5.12705
H          2.75413        7.17623        4.34575
