68
CSD_code = ISUKUD | q = 0 | S = 0 | Stoichiometry = C26H31O7PSi2W | MND = 6
C         -1.10671      -11.45622       -1.72975
H         -0.89135      -10.77902       -0.87914
C         -3.23192      -10.72838       -1.89722
H         -3.16459      -10.05019       -1.02048
C         -0.20153      -12.63712       -1.68257
C         -0.60966      -13.87097       -2.17412
H         -1.60351      -13.97844       -2.57985
C          1.50053      -14.83596       -1.56016
H          2.16119      -15.68858       -1.51423
C          1.90740      -13.61322       -1.05208
H          2.88447      -13.51049       -0.60483
C          1.05952      -12.52236       -1.10429
H          1.37011      -11.57658       -0.68228
C         -4.67673      -11.05212       -2.16150
C         -5.12116      -12.36105       -2.26557
H         -4.41916      -13.16896       -2.13222
C         -6.45707      -12.61585       -2.52602
H         -6.80282      -13.63606       -2.60122
C         -7.34616      -11.56827       -2.69239
H         -8.38671      -11.76981       -2.89876
C         -6.90116      -10.26003       -2.59143
H         -7.59246       -9.44089       -2.72012
C         -5.57038      -10.00067       -2.32197
H         -5.21240       -8.98486       -2.24272
C         -1.08661      -11.48588       -4.67378
H         -1.46609      -12.42525       -4.26038
C          1.12936      -10.99959       -6.97112
H          1.07578       -9.91836       -6.92626
H          0.48251      -11.32779       -7.77596
H          2.14726      -11.25901       -7.24702
C          2.04265      -11.20081       -4.08510
H          1.76363      -11.38153       -3.05294
H          2.22309      -10.13577       -4.20222
H          2.98562      -11.71055       -4.25990
C          0.87533      -13.70926       -5.49463
H          0.04374      -14.13138       -6.04920
H          0.91930      -14.20874       -4.53204
H          1.78490      -13.95579       -6.03208
C         -4.17248      -10.86995       -5.48919
H         -4.37699       -9.98198       -4.90165
H         -4.45794      -11.72840       -4.88855
H         -4.82255      -10.84990       -6.35961
C         -1.84299       -9.27246       -6.77910
H         -1.30075       -9.38374       -7.71173
H         -1.21321       -8.71315       -6.09076
H         -2.72014       -8.66618       -6.98414
C         -2.31682      -12.34907       -7.34629
H         -2.76760      -13.25875       -6.96203
H         -1.31758      -12.59728       -7.68249
H         -2.89140      -12.04926       -8.21581
C         -1.79032       -7.38817       -3.90418
C         -1.13177       -7.96744       -1.31099
C          1.45708       -8.71360       -1.99648
C          0.90428       -7.97851       -4.73986
C          0.49559       -6.18986       -2.73192
C          0.23741      -14.96384       -2.11108
H         -0.09372      -15.91955       -2.49038
O         -2.45892      -11.85285       -1.68974
O         -2.68080      -10.02104       -3.01584
O         -2.79341       -7.00586       -4.29112
O         -1.72059       -7.84895       -0.33638
O          2.31088       -9.04603       -1.31125
O          1.50967       -7.80019       -5.69501
O          0.83192       -5.11250       -2.54392
P         -1.09477      -10.31818       -3.27487
Si         0.71202      -11.81717       -5.29797
Si        -2.34694      -10.95520       -6.03752
W         -0.11964       -8.04971       -3.02551
