72
CSD_code = IYIMIN | q = 0 | S = 0 | Stoichiometry = C25H42N2Si2Ti | MND = 13
Ti         2.99310        2.35969        3.09984
Si        -0.71913       -0.81603        3.28344
Si        -0.40264        4.08224        2.51303
N          0.97436       -0.77502        3.74117
N          2.91105        0.36055        2.71467
C          1.67188        0.30132        3.17644
C          0.95697        1.48534        2.95854
C          0.83050        2.73877        2.91782
C          1.56251       -1.52831        4.84387
H          2.53832       -1.07450        5.05381
C          0.72124       -1.40496        6.11568
H          0.50518       -0.36325        6.33732
H          1.26129       -1.83569        6.95620
H         -0.22068       -1.93228        6.00034
C          1.75803       -3.01053        4.51142
H          0.80231       -3.52295        4.50044
H          2.39014       -3.47446        5.26580
H          2.22444       -3.14025        3.53954
C          3.70375       -0.83581        2.49288
H          3.64272       -1.49699        3.36825
C          3.15085       -1.60541        1.28471
H          2.11310       -1.88293        1.45952
H          3.73592       -2.50666        1.11274
H          3.19252       -0.98503        0.39188
C          5.18426       -0.50836        2.29555
H          5.36598       -0.08612        1.31215
H          5.77225       -1.41962        2.39064
H          5.51299        0.20240        3.05217
C         -1.40307       -2.60004        3.31214
H         -0.82705       -3.27728        2.69003
H         -2.41555       -2.58514        2.92170
H         -1.45747       -3.02301        4.30927
C         -0.86779       -0.23179        1.47136
H         -1.11554        0.82304        1.41725
H         -1.64598       -0.78179        0.95086
H          0.06024       -0.37120        0.92465
C         -1.81261        0.24485        4.44069
H         -2.04243       -0.26906        5.36938
H         -2.75887        0.48590        3.96718
H         -1.32086        1.18075        4.68949
C         -2.11501        3.65684        3.25175
H         -2.53588        2.76335        2.80345
H         -2.81251        4.47169        3.08143
H         -2.06020        3.49457        4.32330
C          0.18569        5.72476        3.31317
H          1.22204        5.67095        3.63507
H         -0.41254        5.97229        4.18502
H          0.09945        6.55597        2.61950
C         -0.66146        4.35005        0.63306
H          0.21596        4.77785        0.15827
H         -1.49226        5.02738        0.45541
H         -0.88878        3.41615        0.12662
C          3.76039        2.11862        0.79378
H          3.84270        1.21745        0.20380
C          2.66187        2.98687        0.78013
H          1.76058        2.84427        0.19891
C          2.99387        4.12544        1.54632
H          2.41129        5.03207        1.61687
C          4.30550        3.95512        2.02258
H          4.91157        4.71543        2.49938
C          4.77116        2.69450        1.58846
H          5.78973        2.34118        1.68367
C          2.61551        1.91353        5.39010
H          1.89647        1.22450        5.81225
C          3.96806        1.63652        5.10355
H          4.47202        0.69214        5.27105
C          4.59056        2.84931        4.75164
H          5.65261        2.99029        4.58417
C          3.62166        3.87337        4.82455
H          3.81113        4.93466        4.72443
C          2.40104        3.29622        5.20733
H          1.49407        3.82888        5.45916
