80
CSD_code = IYIMUZ | q = 0 | S = 0 | Stoichiometry = C33H42N2Si2Zr | MND = 14
C          2.91155       13.57834       10.70854
H          2.73495       13.59691       11.77753
C          2.53244       14.57685        9.79038
H          2.04084       15.50688       10.04141
C          3.07144       14.23871        8.52547
H          3.07345       14.87181        7.64697
C          3.80138       13.03983        8.67474
H          4.45308       12.59785        7.93003
C          3.68779       12.61971       10.01720
H          4.24988       11.81686       10.47713
C         -0.16137       11.14196        7.59768
H         -1.21952       11.01076        7.78306
C          0.41429       12.13327        6.76832
H         -0.13331       12.87055        6.19207
C          1.79629       11.85762        6.66166
H          2.48738       12.35284        5.98879
C          2.07815       10.71513        7.44646
H          3.02345       10.18216        7.47863
C          0.86477       10.27029        8.02113
H          0.72271        9.35289        8.58128
C         -0.32516       14.04712        9.09594
C         -0.64662       13.19105       10.00765
C         -0.50445       11.95923       10.58735
C          1.30182       10.96249       11.90825
C          0.75185       11.17665       13.18045
H         -0.12527       11.80219       13.26874
C          1.32467       10.59872       14.29479
H          0.88701       10.78021       15.26702
C          2.45150        9.79177       14.19439
C          2.98911        9.56503       12.92962
H          3.85526        8.92435       12.83238
C          2.43061       10.13020       11.80432
H          2.82378        9.91902       10.81174
C          3.08474        9.18368       15.41057
H          2.40895        9.22500       16.26151
H          3.99622        9.72259       15.67337
H          3.35410        8.14467       15.22767
C         -1.69087        9.83313       10.44059
C         -0.82938        8.88007       10.97349
H         -0.12695        9.15482       11.74241
C         -0.88343        7.56548       10.54463
H         -0.19974        6.84621       10.97368
C         -1.80195        7.15389        9.59047
C         -2.67900        8.10335        9.07821
H         -3.40918        7.80700        8.33804
C         -2.62344        9.41879        9.49049
H         -3.30289       10.14414        9.07026
C         -1.85477        5.73380        9.11332
H         -2.87390        5.35277        9.15495
H         -1.21780        5.09576        9.72074
H         -1.51843        5.67120        8.07818
C         -4.30123       10.87734       12.03670
H         -4.58326       10.05652       11.38648
H         -5.21019       11.38738       12.33621
H         -3.85541       10.44637       12.92744
C         -2.67136       13.49164       12.40272
H         -2.23744       13.10229       13.31851
H         -3.56676       14.03971       12.67711
H         -1.96805       14.19807       11.97363
C         -3.94576       12.84620        9.62763
H         -3.20579       13.12621        8.88230
H         -4.50746       13.73926        9.88288
H         -4.64468       12.15469        9.16499
C         -2.48312       15.95707        8.03702
H         -2.62443       15.24917        7.22625
H         -2.66989       16.95064        7.64120
H         -3.23959       15.75433        8.78720
C          0.51318       16.40069        7.41426
H          1.42305       16.81803        7.83480
H          0.07410       17.16613        6.78193
H          0.79200       15.56511        6.77300
C         -0.64673       17.07133       10.24596
H         -1.42649       16.85421       10.97000
H         -0.78527       18.09546        9.91176
H          0.30318       17.02511       10.77100
N         -1.66076       11.18199       10.84257
N          0.79811       11.52680       10.76510
Si        -3.11135       12.09508       11.18126
Si        -0.72097       15.83939        8.77500
Zr         1.36717       12.49104        9.03362
