49
CSD_code = IYUDIP | q = 0 | S = 0 | Stoichiometry = C16H28S2Si2Ti | MND = 12
Ti         8.02291        5.74546        4.15213
S          7.64196        3.74104        2.94880
S         10.38674        5.57171        4.15059
Si         8.58449        3.40943        1.04291
Si        11.35692        3.79413        4.87887
C          7.58596        4.20967       -0.38227
C          8.49590        1.51508        0.83432
C         10.39888        4.00139        0.96517
C         10.50260        2.17515        4.33506
C         13.10245        3.90605        4.11720
C         11.54058        3.81346        6.78514
C          8.39029        6.91369        2.18523
C          8.62805        7.83649        3.23187
C          7.40533        8.08294        3.87816
C          6.41252        7.30662        3.24919
C          7.01545        6.59274        2.19722
C          6.53661        4.62234        5.60760
C          6.30112        5.98500        5.85445
C          7.48560        6.54887        6.36709
C          8.45187        5.53018        6.45898
C          7.87027        4.33458        5.98431
H          6.51861        4.04958       -0.25662
H          7.87200        3.75860       -1.32742
H          7.75909        5.27872       -0.46612
H          9.03611        1.00081        1.62275
H          8.92390        1.21475       -0.11655
H          7.46824        1.16698        0.86346
H         10.61048        4.50149        0.02450
H         11.08182        3.16189        1.04974
H         10.63058        4.69173        1.77439
H         10.53555        1.42902        5.12327
H         10.99638        1.75435        3.46471
H          9.46043        2.33996        4.06845
H         13.60703        4.81500        4.42875
H         13.06475        3.90973        3.03258
H         13.70958        3.06251        4.42895
H         10.61817        3.55750        7.29835
H         11.86665        4.78628        7.14245
H         12.29163        3.08966        7.08581
H          9.11384        6.61568        1.43773
H          9.56874        8.33753        3.42568
H          7.23445        8.82964        4.64131
H          5.34855        7.35222        3.44014
H          6.48654        5.99870        1.46471
H          5.80403        3.89248        5.28507
H          5.34429        6.48305        5.78083
H          7.59980        7.55125        6.75781
H          9.42378        5.63423        6.92141
H          8.31128        3.34682        6.01722
