94
CSD_code = IZOSAT | q = 0 | S = 0 | Stoichiometry = C26H58NO2P2RhS2Si2 | MND = 4
Rh         5.81046        4.32242        9.11643
P          7.29786        5.99725        8.72842
P          7.26794        2.92867        8.06753
S          4.01520        5.77577        9.28161
Si         0.02703        4.68339        9.76359
S          4.82417        2.59601       10.29245
Si         4.61027        2.04270       13.39666
O          1.51554        5.31183        9.34053
O          3.46522        2.83053       12.48325
N          2.66328        4.05959       10.81484
C          2.67346        4.93013        9.84388
C          5.05331        2.13540        6.60858
H          4.99987        1.16742        7.09608
H          4.51100        2.07546        5.66534
H          4.55266        2.86989        7.24903
C          6.49539        2.58382        6.36044
C          8.12368        6.35454       10.40911
C          8.34333        1.54619       10.20594
H          9.17872        2.23585       10.29811
H          8.63070        0.61199       10.68675
H          7.48310        1.94923       10.73654
C          6.94546        7.66665        7.87166
C          3.59893        3.25995       11.24167
C          8.84662        3.84365        7.68117
H          9.54488        3.56030        8.46924
H          9.25693        3.48757        6.73252
C          6.04915        7.35132        6.67111
H          6.58485        6.79851        5.90316
H          5.69208        8.27780        6.22362
H          5.18245        6.77668        6.99322
C          8.17937        8.41822        7.36817
H          8.86971        8.66227        8.16716
H          7.85135        9.35384        6.91538
H          8.71482        7.85735        6.60679
C          6.89451        0.21224        8.72285
H          5.97704        0.60261        9.15672
H          7.21454       -0.64369        9.31700
H          6.69215       -0.14331        7.71685
C          7.98101        1.28769        8.74064
C         -0.02444        2.82103        9.36535
H          0.26895        2.62884        8.33628
H         -1.01839        2.40941        9.50742
H          0.65690        2.27074       10.00819
C          8.69120        5.36257        7.66213
H          8.44889        5.68902        6.65050
H          9.62734        5.84798        7.95048
C          6.19096        3.11013       13.46311
H          6.45207        3.47518       12.47228
H          7.04251        2.55499       13.84267
H          6.04947        3.97801       14.10224
C          6.14588        8.56584        8.81430
H          5.31108        8.01249        9.23731
H          5.74290        9.41242        8.25901
H          6.76141        8.96195        9.61673
C          9.22767        0.77026        8.02059
H          9.04842        0.58014        6.96894
H          9.52710       -0.17088        8.48183
H         10.06344        1.45889        8.11078
C          6.42417        3.94103        5.66055
H          6.00893        4.67490        6.35304
H          5.77113        3.87997        4.79062
H          7.40376        4.26771        5.31975
C          9.13977        7.49062       10.47348
H          9.91988        7.37002        9.72419
H          9.61835        7.47724       11.45322
H          8.67506        8.46422       10.35075
C         -1.10188        5.68808        8.61454
H         -1.01545        6.75317        8.80342
H         -2.13756        5.40669        8.76816
H         -0.86351        5.52067        7.56912
C          4.97127        0.28108       12.76351
H          4.05123       -0.22491       12.48169
H          5.45137       -0.31513       13.53314
H          5.61926        0.28613       11.89227
C          7.21557        1.60293        5.44034
H          8.25688        1.88486        5.29613
H          6.73138        1.61981        4.46345
H          7.16953        0.58277        5.80928
C         -0.33908        5.00635       11.60252
H          0.38171        4.49372       12.23267
H         -1.33035        4.66024       11.87710
H         -0.28299        6.06675       11.83427
C          8.82645        5.05420       10.80123
H          8.14694        4.21787       10.62866
H          9.09289        5.07320       11.85738
H          9.73923        4.90665       10.22899
C          6.99715        6.58193       11.41977
H          6.48070        7.52172       11.25539
H          7.39560        6.58240       12.43392
H          6.26418        5.77295       11.33408
C          3.72250        1.98535       15.06928
H          3.44689        2.97497       15.41704
H          4.37266        1.53942       15.81261
H          2.81762        1.38975       15.02046
