73
CSD_code = JEXKIH | q = 0 | S = 0 | Stoichiometry = C24H42FeN4Si2 | MND = 4
Fe        -1.94104        2.26598        4.80038
Si        -1.95431        1.08389        7.61267
N         -0.63639        3.59815        4.58492
N         -1.14229        2.12344        6.55488
C         -0.49869        4.32492        3.47298
H         -1.16988        4.05740        2.67300
C          0.43571        5.33023        3.33848
H          0.50930        5.88376        2.41579
C          1.27631        5.61197        4.40968
H          2.01687        6.39407        4.34320
C          1.13913        4.86033        5.56394
H          1.76954        5.03971        6.42148
C          0.17732        3.86169        5.62062
C         -0.03342        2.98777        6.81910
H          0.89738        2.42815        7.00378
H         -0.19551        3.61781        7.70870
C         -2.34938        1.83422        9.33493
H         -2.81846        2.80787        9.23133
H         -1.44606        1.96800        9.92156
H         -3.02358        1.20756        9.90875
C         -3.57703        0.78026        6.65139
H         -4.30349        1.55624        6.86205
H         -4.03535       -0.17420        6.87985
H         -3.36826        0.80614        5.57585
C         -1.05064       -0.61022        7.88046
C         -0.94423       -1.32780        6.53518
H         -0.36562       -2.24802        6.62878
H         -0.45600       -0.68575        5.80413
H         -1.93066       -1.58292        6.15654
C         -1.80372       -1.50757        8.86190
H         -1.30784       -2.47466        8.95582
H         -2.82293       -1.68211        8.52473
H         -1.84320       -1.05164        9.84822
C          0.36040       -0.37654        8.41854
H          0.87449       -1.32399        8.58632
H          0.33092        0.16486        9.36158
H          0.94453        0.20525        7.70968
Si        -1.92776        1.08389        1.98808
N         -3.24567        3.59816        5.01582
N         -2.73978        2.12343        3.04588
C         -3.38336        4.32493        6.12776
H         -2.71214        4.05744        6.92772
C         -4.31778        5.33022        6.26227
H         -4.39136        5.88375        7.18496
C         -5.15841        5.61193        5.19108
H         -5.89900        6.39401        5.25758
C         -5.02124        4.86029        4.03683
H         -5.65166        5.03964        3.17929
C         -4.05940        3.86167        3.98013
C         -3.84866        2.98775        2.78166
H         -4.77945        2.42812        2.59698
H         -3.68657        3.61778        1.89205
C         -1.53270        1.83423        0.26583
H         -1.06357        2.80786        0.36944
H         -2.43603        1.96807       -0.32076
H         -0.85855        1.20755       -0.30803
C         -0.30505        0.78023        2.94938
H          0.42140        1.55623        2.73875
H          0.15327       -0.17421        2.72091
H         -0.51384        0.80610        4.02491
C         -2.83144       -0.61021        1.72026
C         -2.93797       -1.32777        3.06555
H         -3.51657       -2.24799        2.97192
H         -3.42626       -0.68570        3.79654
H         -1.95156       -1.58288        3.44428
C         -2.07830       -1.50760        0.73890
H         -2.57419       -2.47468        0.64496
H         -1.05912       -1.68215        1.07615
H         -2.03874       -1.05168       -0.24743
C         -4.24243       -0.37652        1.18207
H         -4.75654       -1.32397        1.01429
H         -4.21287        0.16483        0.23901
H         -4.82660        0.20531        1.89086
