49
CSD_code = JONBET | q = 0 | S = 0 | Stoichiometry = C16H26BCl2NSi2Ti | MND = 12
Ti         1.95661        1.36453        9.03255
Cl         1.84450        3.48739        8.39116
Cl         3.72265        1.76678       10.31438
Si        -1.95467       -2.56132        8.90258
Si         0.03311       -3.05161        6.54844
N         -0.46204       -2.14735        8.01558
C         -3.40865       -2.33731        7.68783
C         -1.78470       -4.34107        9.57201
C         -2.27071       -1.42660       10.39513
C          1.89474       -3.44316        6.64569
C         -0.38377       -1.95237        5.04826
C         -0.86401       -4.72212        6.38893
C          1.60569       -0.46563        7.68996
C          1.60452        0.67956        6.84872
C          2.91429        1.21011        6.79321
C          3.72659        0.44407        7.64037
C          2.92047       -0.55932        8.22641
C          0.17511        0.00159        9.52411
C          1.00080        0.05651       10.67956
C          0.92216        1.35387       11.23679
C          0.10588        2.13259       10.40497
C         -0.32540        1.31810        9.33165
B          0.31792       -1.05518        8.37280
H         -4.32278       -2.74461        8.10806
H         -3.58574       -1.28486        7.48592
H         -3.23699       -2.82636        6.73540
H         -2.25870       -4.42331       10.54531
H         -2.25814       -5.06928        8.92350
H         -0.74453       -4.62828        9.68901
H         -3.17785       -1.74068       10.90344
H         -1.46164       -1.46530       11.11632
H         -2.40117       -0.38989       10.10615
H          2.50192       -2.57841        6.40193
H          2.15424       -4.23330        5.94814
H          2.18058       -3.77580        7.63893
H          0.28207       -1.09727        4.99637
H         -1.40110       -1.57590        5.09583
H         -0.27950       -2.50401        4.11942
H         -0.62218       -5.15629        5.42390
H         -0.54296       -5.42700        7.14720
H         -1.94218       -4.64046        6.44609
H          0.76891        1.02184        6.24813
H          3.24185        2.02626        6.16251
H          4.79376        0.56104        7.77732
H          3.28614       -1.35757        8.86278
H          1.49294       -0.79185       11.14248
H          1.36593        1.67078       12.17154
H         -0.19280        3.15741       10.58342
H         -1.03464        1.61674        8.56719
