66
CSD_code = KAJKUC | q = 0 | S = 0 | Stoichiometry = C28H32Cl2OSi2Zr | MND = 12
Zr         5.61850        3.48214        8.06846
O          6.43115        5.91272        7.29186
Si         6.63588        6.66935        8.75231
Si         6.55294        5.68546        5.64611
Cl         5.82428        1.16456        8.55503
Cl         7.96874        3.41729        7.91540
C          5.63145        5.37699        9.68167
C          4.25994        5.04448        9.45868
C          4.01916        3.77188       10.01973
C          5.22666        3.30235       10.61462
C          6.21809        4.28131       10.36541
C          3.61493        3.05013        6.60602
C          4.13680        4.33817        6.33026
C          5.40616        4.19537        5.69982
C          5.66328        2.79869        5.58926
C          4.56079        2.10831        6.11550
C          5.92184        8.43238        8.66304
H          6.66712        9.11513        8.27004
H          5.64032        8.78821        9.64707
H          5.05016        8.49884        8.02168
C          8.47452        6.70289        9.23209
H          8.93207        5.73163        9.06682
H          8.60686        6.96931       10.27530
H          9.01825        7.42950        8.63624
C          5.76498        7.19480        4.79006
H          4.72532        7.33157        5.06825
H          5.80351        7.08871        3.71250
H          6.29817        8.10236        5.05199
C          8.36380        5.47723        5.11369
H          8.90038        4.82805        5.79832
H          8.86736        6.43904        5.10257
H          8.43615        5.05761        4.11634
C          3.18661        5.99501        9.00625
H          3.55184        6.68226        8.24470
H          2.85606        6.59729        9.85601
H          2.31858        5.45374        8.62884
C          5.40586        2.08412       11.40325
C          4.31748        1.43360       11.98601
H          3.32152        1.82888       11.85018
C          4.50004        0.29131       12.74192
H          3.64510       -0.20047       13.18371
C          5.77009       -0.22472       12.93334
H          5.91061       -1.11939       13.52179
C          6.85923        0.40835       12.35619
H          7.85150        0.00243       12.48922
C          6.68256        1.54918       11.59946
H          7.53689        2.01178       11.12242
C          2.35172        2.74084        7.27500
C          1.21914        3.53867        7.10066
H          1.25970        4.37826        6.42091
C          0.04403        3.24754        7.76869
H         -0.82522        3.87256        7.62268
C         -0.02338        2.15609        8.61881
H         -0.94225        1.93147        9.13942
C          1.09320        1.35321        8.79598
H          1.04644        0.50302        9.46065
C          2.27276        1.63947        8.13471
H          3.14955        1.02349        8.29623
C          6.85742        2.15926        4.94383
H          6.84451        1.08496        5.12370
H          7.78607        2.56536        5.34634
H          6.85069        2.33071        3.86591
H          3.60850        5.27535        6.43956
H          7.23039        4.27213       10.75153
H          3.04408        3.31088       10.11589
H          4.42002        1.03638        6.08347
