58
CSD_code = KEGTIZ | q = 0 | S = 0 | Stoichiometry = C19H31Cl2N2PSi2W | MND = 5
W          3.67216        0.67856        3.51021
Cl         4.05926        3.00595        3.49664
Cl         5.90522        0.57076        3.88243
P          1.40046        1.71957        3.52988
Si         3.97935       -1.65237        1.28718
Si         2.47445       -1.43650        6.03804
N          3.50191       -0.12369        1.89133
N          3.04426       -0.29868        4.89821
C          1.05051        2.59018        5.10334
C          1.07692        2.94859        2.22102
C          1.61905        2.63583        0.97516
C          1.43639        3.49035       -0.09526
C          0.71704        4.66422        0.07317
C          0.18222        4.97934        1.31061
C          0.35770        4.12497        2.38652
C         -0.01200        0.58593        3.32145
C          0.28824       -0.74029        3.02761
C         -0.73654       -1.65252        2.84754
C         -2.05677       -1.24355        2.95465
C         -2.35577        0.08155        3.22903
C         -1.33654        1.00005        3.40772
C          4.92949       -2.48988        2.73936
C          5.12997       -1.47908       -0.23302
C          2.50009       -2.76531        0.78769
C          2.19506       -3.17460        5.27763
C          3.73518       -1.60161        7.46972
C          0.79699       -0.86020        6.77672
H          1.29047        1.90004        5.91410
H          1.69520        3.46832        5.16992
H          0.00363        2.88255        5.17587
H          2.19848        1.71783        0.87509
H          1.86036        3.24968       -1.05854
H          0.58072        5.33780       -0.75959
H         -0.37032        5.89808        1.44197
H         -0.05431        4.38818        3.34918
H          1.33738       -1.02088        2.95538
H         -0.51034       -2.68359        2.62255
H         -2.85620       -1.95658        2.81928
H         -3.38520        0.39969        3.30227
H         -1.57186        2.03618        3.60595
H          5.99810       -2.30553        2.66942
H          4.57035       -2.05885        3.68148
H          4.78443       -3.56500        2.77102
H          5.57136       -2.43537       -0.49369
H          4.58580       -1.11896       -1.10023
H          5.93859       -0.78123       -0.03633
H          2.83441       -3.57203        0.14418
H          2.02623       -3.21099        1.65647
H          1.74383       -2.20341        0.24852
H          1.53335       -3.76969        5.89925
H          1.75412       -3.10955        4.28826
H          3.13080       -3.71619        5.18334
H          3.44077       -2.38584        8.15960
H          4.72274       -1.84546        7.08932
H          3.82204       -0.67801        8.03404
H          0.35114       -1.65447        7.36561
H          0.92041       -0.00396        7.43341
H          0.08890       -0.58819        5.99876
