75
CSD_code = KEQCUE | q = 0 | S = 0 | Stoichiometry = C24H42N4O2Si2W | MND = 6
W          1.96230       15.66783        2.81376
Si         3.44126       15.61381       -0.21678
Si         0.48394       16.06828        5.81889
O          3.14658       16.63694        3.53438
O          0.77996       16.52017        1.95570
N          3.11232       14.81867        1.28659
N          3.31561       13.83418        3.29136
N          0.81246       15.05687        4.45165
N          0.60896       13.78338        2.61702
C          3.85867       14.01452        2.05184
C          5.05473       13.35407        1.69978
H          5.47309       13.50958        0.72121
C          5.65956       12.53650        2.62289
H          6.57863       12.02550        2.37396
C          5.08877       12.36597        3.88231
H          5.54965       11.72729        4.61841
C          3.91415       13.03730        4.18011
C          3.24843       12.89094        5.51557
H          2.91020       11.86488        5.65666
H          2.39378       13.56387        5.57285
H          3.94924       13.12801        6.31344
C          4.45579       14.57575       -1.46996
H          4.29488       14.96413       -2.46893
H          4.15200       13.53372       -1.47293
H          5.52328       14.61272       -1.28165
C          1.69986       15.90299       -0.94121
H          1.30337       15.02824       -1.44774
H          1.67990       16.72344       -1.65018
H          1.03603       16.15324       -0.10806
C          4.34769       17.28366        0.17627
C          3.30983       18.28487        0.69574
H          2.60335       18.55577       -0.08509
H          3.80307       19.19295        1.04232
H          2.74835       17.84476        1.53929
C          5.04806       17.87601       -1.05013
H          5.82964       17.21243       -1.41060
H          5.50168       18.83417       -0.80032
H          4.33854       18.03480       -1.85822
C          5.37366       17.04963        1.29081
H          5.91208       17.97104        1.51101
H          6.10161       16.28809        1.01455
H          4.85295       16.73261        2.20162
C          0.07072       14.14057        3.81973
C         -1.11559       13.52711        4.27472
H         -1.52993       13.82131        5.22261
C         -1.71577       12.57463        3.48798
H         -2.62689       12.09590        3.81721
C         -1.15044       12.22509        2.26356
H         -1.60802       11.47913        1.63396
C          0.01461       12.85719        1.86073
C          0.67351       12.52258        0.55619
H          1.00684       11.48512        0.55782
H          1.53021       13.17767        0.40205
H         -0.03050       12.64976       -0.26404
C          2.22544       16.46102        6.49270
H          2.88972       16.58326        5.63177
H          2.62099       15.67143        7.12444
H          2.24611       17.37822        7.07105
C         -0.53392       15.23521        7.21418
H         -0.38275       15.77865        8.13962
H         -0.22413       14.20911        7.38500
H         -1.60014       15.23458        7.01524
C         -0.42140       17.66004        5.17763
C         -1.12532       18.42939        6.29929
H         -1.57720       19.33958        5.90734
H         -0.41851       18.70701        7.07711
H         -1.90882       17.82746        6.75201
C         -1.44470       17.26042        4.10859
H         -0.92164       16.81172        3.25625
H         -1.98404       18.13767        3.75225
H         -2.17203       16.54727        4.49424
C          0.61757       18.57266        4.51652
H          1.32169       18.95817        5.24990
H          0.12507       19.41811        4.03623
H          1.18156       18.01131        3.75012
