134
CSD_code = KIGRUQ | q = 0 | S = 0 | Stoichiometry = C50H76N3O2Si2Y | MND = 5
Y          4.91739       13.47008        8.05545
Si         2.48032       15.86433        7.20957
Si         3.76296       15.93101        9.90639
O          6.68252       13.06142        9.01984
O          3.90940       11.90681        8.79284
N          6.78822       14.14253        6.30163
N          4.73277       12.01028        5.88513
N          3.67008       15.27161        8.30828
C          7.88432       12.59266        8.74485
C          8.63974       13.20830        7.72029
C          9.90053       12.75827        7.37451
H         10.42660       13.27266        6.58191
C         10.48859       11.68918        8.03160
C          9.75921       11.10382        9.06051
H         10.20514       10.28388        9.59180
C          8.49392       11.51653        9.44573
C          8.06580       14.41264        7.02968
H          8.80287       14.80135        6.31019
H          7.87081       15.19000        7.77470
C         11.87956       11.22589        7.62525
C         11.86366       10.81747        6.14506
H         11.15034       10.01114        5.98658
H         12.84907       10.47236        5.83823
H         11.58279       11.65197        5.50831
C         12.87088       12.37994        7.83182
H         12.60794       13.24008        7.22226
H         13.87795       12.06618        7.56389
H         12.87041       12.69014        8.87445
C         12.36937       10.02732        8.44203
H         12.43738       10.27640        9.49815
H         13.36157        9.73704        8.10127
H         11.70785        9.17304        8.31869
C          7.77618       10.84233       10.61024
C          8.60790        9.74497       11.28460
H          8.82387        8.92947       10.59773
H          8.03966        9.33565       12.11776
H          9.54111       10.14011       11.67972
C          7.45028       11.90015       11.67198
H          8.36793       12.33751       12.06138
H          6.90058       11.44999       12.49613
H          6.84402       12.68784       11.23789
C          6.47932       10.20153       10.10242
H          5.81445       10.96345        9.70295
H          5.96599        9.69255       10.91542
H          6.69272        9.47109        9.32280
C          6.42772       15.36486        5.63076
C          6.06214       16.44979        6.43005
H          5.97961       16.32393        7.50203
C          5.78360       17.68028        5.87097
H          5.52486       18.50759        6.51349
C          5.83970       17.85493        4.49749
H          5.61704       18.81491        4.05757
C          6.18093       16.78263        3.69639
H          6.22512       16.89971        2.62350
C          6.48691       15.55044        4.25341
H          6.76920       14.75255        3.58490
C          6.99112       12.98044        5.42834
H          7.47329       12.20622        6.03411
H          7.68245       13.21331        4.60438
C          5.69076       12.42460        4.84965
H          5.19800       13.18261        4.23195
H          5.96696       11.57880        4.20005
C          3.41995       11.78270        5.30477
C          3.24453       11.05994        4.13060
H          4.09257       10.68279        3.57935
C          1.97123       10.79495        3.65727
H          1.84990       10.22918        2.74515
C          0.86066       11.23825        4.35240
H         -0.13093       11.02056        3.98514
C          1.03031       11.96078        5.52065
H          0.17085       12.31308        6.06939
C          2.30125       12.23459        5.99183
H          2.43252       12.80432        6.90475
C          3.43151       10.74647        8.38142
C          3.99113       10.09564        7.26298
C          3.44015        8.92507        6.76560
H          3.89578        8.48445        5.89240
C          2.33299        8.34396        7.35383
C          1.82333        8.95882        8.49593
H          0.97278        8.50273        8.97248
C          2.33800       10.12078        9.03647
C          5.14979       10.72541        6.53098
H          5.50097       10.02576        5.75672
H          5.98053       10.92531        7.22137
C          1.64018        7.11272        6.79166
C          2.33378        6.57083        5.53883
H          2.33947        7.31599        4.74644
H          1.79803        5.69579        5.17559
H          3.35648        6.27261        5.75732
C          0.20327        7.49596        6.40858
H         -0.35963        7.82746        7.27634
H         -0.31252        6.64318        5.97132
H          0.21670        8.30667        5.68243
C          1.62005        5.99838        7.84633
H          2.63596        5.74047        8.13744
H          1.13748        5.10876        7.44610
H          1.07956        6.30663        8.73650
C          1.74887       10.74854       10.29533
C          0.58967        9.93606       10.88395
H         -0.24608        9.87695       10.19007
H          0.23680       10.42478       11.79025
H          0.90791        8.93044       11.14922
C          2.84493       10.84079       11.36517
H          3.19864        9.84448       11.62351
H          2.45619       11.31684       12.26331
H          3.68446       11.42213       10.99738
C          1.21694       12.15145        9.96953
H          2.02019       12.79901        9.62123
H          0.77441       12.59851       10.85798
H          0.45163       12.08680        9.19735
C          4.76731       14.67845       10.95317
H          4.49037       13.65036       10.70006
H          4.58691       14.80621       12.01650
H          5.83726       14.80296       10.79130
C          2.08275       16.21018       10.77372
H          1.52490       16.99494       10.27588
H          2.21571       16.50824       11.80872
H          1.47245       15.31400       10.76047
C          4.70901       17.60158        9.97227
H          5.75793       17.49357        9.71120
H          4.66657       18.02707       10.96966
H          4.27109       18.32104        9.29026
C          2.27840       17.76455        7.17186
H          2.00457       18.14548        8.14907
H          1.49656       18.05170        6.47592
H          3.18941       18.26425        6.86389
C          0.70924       15.20348        7.55027
H          0.71045       14.17082        7.88074
H          0.08653       15.26852        6.66281
H          0.22967       15.78767        8.32818
C          2.97476       15.34821        5.42857
H          3.31903       16.20238        4.85566
H          2.13745       14.91072        4.89549
H          3.77832       14.61598        5.43818
