61
CSD_code = KIHWEF | q = 0 | S = 0 | Stoichiometry = C26H30Cl2Si2Ti | MND = 12
Ti         6.71113        3.55331        5.53794
Cl         5.06057        4.82721        6.36697
Cl         5.50682        1.72378        5.90849
C          7.44916        3.59351        7.70708
C          7.99117        4.74381        7.06837
H          7.78660        5.76802        7.35389
C          8.93696        4.32861        6.11813
H          9.59705        4.97400        5.55304
C          8.97226        2.91596        6.12562
H          9.66908        2.29646        5.57676
C          8.07683        2.46895        7.11450
H          7.95913        1.44611        7.45031
Si         6.36718        3.57755        9.25462
C          5.96941        5.37594        9.76356
H          6.87374        5.94943        9.94672
H          5.38678        5.38819       10.67905
H          5.39378        5.88317        8.99582
C          4.78196        2.53708        9.06359
H          4.16170        2.91932        8.25750
H          4.19240        2.56050        9.97485
H          5.00919        1.49822        8.83987
C          7.46670        2.81110       10.61022
C          8.84437        2.67620       10.46431
H          9.31307        2.99129        9.54210
C          9.62496        2.14716       11.47669
H         10.69333        2.05218       11.34122
C          9.03996        1.74094       12.66364
H          9.64698        1.32641       13.45561
C          7.67134        1.87036       12.82967
H          7.20745        1.55626       13.75405
C          6.89945        2.40126       11.81268
H          5.83316        2.50008       11.95168
C          6.80410        2.74836        3.39017
C          7.86716        3.67588        3.49545
H          8.91146        3.44541        3.33246
C          7.32971        4.96825        3.67260
H          7.88513        5.89757        3.69619
C          5.92660        4.86064        3.62036
H          5.22751        5.68680        3.63890
C          5.59948        3.50325        3.47177
H          4.60056        3.10115        3.34808
Si         6.93675        0.92006        2.93858
C          8.03478       -0.02989        4.18041
H          8.02249       -1.09398        3.96622
H          7.69216        0.11195        5.20205
H          9.06930        0.29692        4.11975
C          7.77217        0.84133        1.21843
H          7.82623       -0.18390        0.86841
H          8.78380        1.23374        1.24666
H          7.22165        1.41231        0.47814
C          5.18702        0.19636        2.82487
C          4.72721       -0.75905        3.72567
H          5.38075       -1.10417        4.51183
C          3.44206       -1.26291        3.63836
H          3.10312       -2.00117        4.35090
C          2.58781       -0.81931        2.64349
H          1.58258       -1.20968        2.57531
C          3.02762        0.13074        1.73723
H          2.36547        0.48341        0.95897
C          4.31359        0.63047        1.83023
H          4.64686        1.37308        1.11862
