81
CSD_code = KIRVOY | q = 0 | S = 0 | Stoichiometry = C29H41FeNO6SSi2 | MND = 8
Fe         2.97226        1.72084        2.15650
Si         5.68936        4.04856        3.24255
S         -0.35111        3.53839        4.98159
Si         3.55077       -1.38879        4.13703
N          1.17625        2.95394        5.29117
C          4.85730        1.22949        3.65361
C          2.63305        1.43855        4.29526
C          4.43988        2.65468        3.50230
C          3.15226        2.74623        4.08520
C          3.58299        0.48080        3.85833
C          2.29958        3.74599        4.79996
H          2.84712        4.17330        5.65050
H          1.93135        4.56806        4.18442
C          1.41786        1.51918        5.16230
H          0.52188        1.03114        4.77946
H          1.63433        1.09885        6.15380
O          5.98238        0.77422        3.57395
O         -1.26305        2.54258        5.45902
O         -0.39250        4.86072        5.52911
O          2.14518        4.02697        0.60000
O          4.92876        0.68430        0.23163
O          0.76838        0.13978        1.12936
C          4.48372       -1.80129        5.78219
C          1.71569       -1.90046        4.23929
H          1.15747       -1.51245        3.39351
H          1.23681       -1.53967        5.14348
H          1.61710       -2.98011        4.22508
C          4.36422       -2.18287        2.61009
H          4.47816       -3.25657        2.71896
H          5.34831       -1.75775        2.44085
H          3.76726       -2.00211        1.72001
C          5.99298       -1.86426        5.53848
H          6.35391       -0.94054        5.09559
H          6.23928       -2.68176        4.86581
H          6.52012       -2.02619        6.47820
C          4.01807       -3.15682        6.31953
H          4.57032       -3.41237        7.22312
H          4.18778       -3.94204        5.58654
H          2.95877       -3.13914        6.56289
C          4.20144       -0.73068        6.84037
H          3.13600       -0.66047        7.05200
H          4.55462        0.24276        6.50664
H          4.71426       -0.97568        7.76991
C          6.84592        4.16117        4.79081
C          4.68075        5.65248        3.01387
H          5.31800        6.46093        2.67349
H          4.20622        5.97527        3.93453
H          3.90129        5.51725        2.27075
C          6.63930        3.64836        1.64232
H          5.97505        3.68295        0.78278
H          7.06430        2.65111        1.69298
H          7.44935        4.34769        1.46206
C          6.05576        3.87498        6.07120
H          5.64422        2.86808        6.05217
H          5.23797        4.58280        6.19424
H          6.70666        3.95746        6.94094
C          7.98382        3.14421        4.67957
H          8.59245        3.16002        5.58307
H          8.62566        3.37675        3.83375
H          7.59424        2.13941        4.54404
C          7.45039        5.56402        4.88944
H          6.67720        6.31531        5.02871
H          8.00746        5.80929        3.98826
H          8.13431        5.61907        5.73550
C         -0.90607        3.91934        0.46867
C         -0.52145        3.67352        3.20320
C         -0.89424        2.56572        2.46569
H         -1.06793        1.62878        2.97032
C         -0.34986        4.90303        2.59794
H         -0.09912        5.75595        3.20928
C         -0.54056        5.02238        1.23196
H         -0.40938        5.98247        0.75564
C         -1.12378        4.03761       -1.00683
H         -0.84169        5.02321       -1.36599
H         -2.17290        3.86743       -1.24584
H         -0.53712        3.28899       -1.53640
C          4.19912        1.08309        1.01036
C          2.44087        3.13049        1.24844
C          1.60340        0.78281        1.57753
C         -1.08469        2.69191        1.10201
H         -1.38469        1.83299        0.52024
