66
CSD_code = KIWCEY | q = 0 | S = 0 | Stoichiometry = C23H32Cl2MoN4S2Si2 | MND = 7
Mo         8.08461       10.04970        6.50455
Cl         7.94116        9.85734        4.10270
Cl        10.36824       10.27375        6.28131
S          8.16992       11.76579        8.43346
S          8.49789        8.68489        8.65781
Si         8.34215       15.05063        8.90647
Si         9.30324        5.60219        9.59987
N          7.97705       12.16767        5.95343
N          8.42314        7.89787        6.26530
N          6.34626        9.88056        6.65142
N          5.07374        9.75255        6.61935
C          4.30357        9.75563        7.78518
C          2.91497        9.63102        7.74167
C          2.18707        9.63855        8.91764
C          2.82029        9.76789       10.14189
C          4.20032        9.89159       10.18620
C          4.94042        9.88655        9.02221
C          4.46228        9.60767        5.30847
C          8.10230       12.84208        7.10688
C          8.16636       14.23803        7.19534
C          8.10353       14.92599        5.99993
C          7.97851       14.23530        4.79500
C          7.91988       12.85901        4.81252
C          6.82266       14.59055        9.95989
C          8.36543       16.93866        8.63091
C          9.98590       14.50027        9.69251
C          8.66442        7.43615        7.50203
C          9.00379        6.10882        7.79077
C          9.09787        5.25677        6.70841
C          8.85625        5.72720        5.41814
C          8.52253        7.05161        5.23730
C          9.70112        3.73600        9.60022
C          7.70134        5.90313       10.58673
C         10.79124        6.57021       10.28648
H          2.39567        9.52916        6.80277
H          1.11223        9.54196        8.87319
H          2.24326        9.77243       11.05377
H          4.70697        9.99315       11.13363
H          6.01672        9.98345        9.05841
H          3.93126        8.65735        5.23601
H          5.26840        9.62814        4.57201
H          3.77434       10.43166        5.11263
H          8.15478       16.00387        5.99861
H          7.93032       14.76119        3.85500
H          7.82240       12.28728        3.89839
H          5.89794       14.91490        9.49070
H          6.87502       15.05441       10.93991
H          6.76354       13.51653       10.10172
H          7.45742       17.29115        8.15198
H          9.20839       17.25231        8.02348
H          8.44684       17.44981        9.58398
H         10.00263       13.42431        9.83213
H         10.13108       14.96383       10.66347
H         10.83480       14.76705        9.06886
H          9.36249        4.22201        6.86238
H          8.92888        5.07217        4.56484
H          8.32595        7.45395        4.25165
H          8.88605        3.14609        9.19310
H          9.87079        3.39477       10.61560
H         10.59638        3.50953        9.02998
H          7.44631        6.95764       10.59327
H          7.81263        5.57976       11.61695
H          6.86152        5.36173       10.16001
H         10.60473        7.63848       10.24850
H         11.69451        6.37027        9.71656
H         10.98789        6.30397       11.32051
