99
CSD_code = KOXGIN | q = 0 | S = 0 | Stoichiometry = C38H54O4Si2Ti | MND = 4
Ti         9.36873        2.55601        5.30838
Si        11.93508        1.82004        8.71452
Si         8.10964        3.31795        1.80519
O         10.73902        2.97663        6.35127
O          9.93005        2.08236        3.70450
O          8.52192        1.22904        5.99547
O          8.43713        3.99833        5.17052
C         12.45357        2.71926        4.72159
C         11.91662        2.47206        5.98183
C         12.64717        1.74290        6.95811
C         13.84696        1.18404        6.60821
C         15.58880        0.70302        4.93349
C         16.09522        0.85637        3.67324
C         15.40314        1.62910        2.72858
C         14.22621        2.24081        3.05894
C         13.67981        2.10814        4.35413
C         14.37486        1.31474        5.30665
C         10.13174        1.21393        8.90033
C         13.00242        0.63783        9.77576
C         12.14012        3.63673        9.38012
C         10.86892        4.45533        9.14381
C         13.29796        4.32788        8.65433
C         12.43660        3.63107       10.88234
C         11.72730        3.62481        3.79914
C         10.47424        3.24839        3.33093
C          9.73731        4.06236        2.43377
C         10.27089        5.26163        2.04819
C         12.05660        6.95527        2.14630
C         13.26216        7.38219        2.62967
C         13.98356        6.57753        3.52351
C         13.49822        5.35840        3.90810
C         11.52298        5.70725        2.52629
C         12.26418        4.88243        3.41511
C          6.86870        2.59385        3.07023
C          7.17884        4.75210        0.93755
C          8.56094        1.96316        0.47692
C          7.45498        1.86462       -0.57610
C          8.73604        0.58632        1.12326
C          9.86953        2.33831       -0.22402
C          8.67529       -0.15291        5.93329
C          7.75290       -0.73753        4.85452
C         10.13603       -0.52621        5.63787
C          7.60152        4.72327        6.00491
C          7.27122        3.90224        7.25978
C          8.27459        6.05217        6.37356
H         14.41581        0.62929        7.33991
H         16.11068        0.10506        5.66751
H         17.02559        0.38301        3.39526
H         15.80751        1.73595        1.73246
H         13.69207        2.82921        2.32722
H          9.50763        1.56718        8.07909
H          9.69658        1.56584        9.83165
H         10.08849        0.12805        8.91798
H         14.03247        0.96966        9.84511
H         12.61227        0.57459       10.78500
H         13.00786       -0.36724        9.36615
H         10.03553        4.05315        9.71617
H         11.02201        5.49066        9.45094
H         10.60600        4.44150        8.08765
H         13.07927        4.42480        7.59275
H         14.22072        3.76096        8.76103
H         13.46160        5.32600        9.06116
H         11.64706        3.12399       11.43227
H         12.50906        4.65206       11.25662
H         13.37560        3.12626       11.09101
H          9.72897        5.89903        1.36463
H         11.48800        7.57213        1.46448
H         13.66290        8.34049        2.33298
H         14.92899        6.92952        3.91002
H         14.05482        4.74481        4.60119
H          6.30663        3.39458        3.54425
H          7.37955        2.03471        3.85699
H          6.15191        1.93610        2.58382
H          7.70702        5.10639        0.05909
H          6.19554        4.42829        0.61579
H          7.04322        5.59807        1.60410
H          7.68655        1.08068       -1.29659
H          7.35148        2.80166       -1.11515
H          6.49853        1.62987       -0.11547
H          9.07519       -0.13952        0.38351
H          7.79284        0.23275        1.53444
H          9.47127        0.63085        1.92396
H         10.10388        1.61582       -1.00581
H         10.69361        2.35287        0.48599
H          9.79762        3.32282       -0.68093
H          8.38343       -0.57507        6.91552
H          7.79422       -1.82399        4.86821
H          6.72705       -0.41974        5.03472
H          8.07298       -0.37597        3.87796
H         10.43680       -0.06519        4.69152
H         10.24248       -1.60661        5.55985
H         10.78843       -0.16198        6.43249
H          6.66026        4.94168        5.45930
H          6.84256        2.94194        6.95782
H          6.56519        4.43093        7.89746
H          8.19687        3.71848        7.81169
H          7.64526        6.63301        7.04315
H          8.46509        6.62670        5.46923
H          9.22874        5.84471        6.85695
