71
CSD_code = LEDVEW | q = 1 | S = 0 | Stoichiometry = C29H36INbOPSi2(1+) | MND = 12
Nb         7.20321        8.90574        3.74795
I          8.08626        5.05510        2.44615
P          6.31642        6.61283        3.05300
Si         8.29441       12.61586        2.49175
Si         7.49583       10.03305        7.45294
O          9.33150        7.33932        5.44016
C          8.50412        7.88383        4.85169
C          8.20537       10.71324        2.50977
C          9.24758        9.85805        2.94679
H         10.10288       10.16133        3.53671
C          9.12330        8.60041        2.28725
H          9.88365        7.82648        2.25926
C          8.00078        8.68674        1.41958
H          7.72352        7.95126        0.67192
C          7.43000        9.95694        1.58304
H          6.63821       10.36567        0.96838
C          9.10598       13.28754        4.07874
H         10.04562       12.78757        4.29474
H          8.47653       13.21284        4.96090
H          9.33193       14.34015        3.94054
C          6.55841       13.36453        2.22857
H          6.05564       12.93558        1.36604
H          6.65608       14.42854        2.03732
H          5.90114       13.25764        3.08676
C          9.39635       12.96235        0.97743
H          8.97009       12.56211        0.06185
H         10.38522       12.52843        1.09412
H          9.52223       14.03128        0.83939
C          6.48722        9.79220        5.85557
C          5.63121        8.68907        5.54880
H          5.42269        7.86634        6.22377
C          4.84612        9.02532        4.41075
H          3.99638        8.46065        4.04256
C          5.23914       10.30345        3.98232
H          4.75821       10.88668        3.20716
C          6.23946       10.76923        4.86487
H          6.63662       11.77266        4.88007
C          6.64870       11.44363        8.41201
H          5.60277       11.22698        8.60804
H          6.69399       12.38628        7.87495
H          7.13633       11.59159        9.36959
C          9.27471       10.49933        6.94572
H          9.84641        9.63003        6.63423
H          9.80341       10.94798        7.78052
H          9.28735       11.21671        6.13007
C          7.43997        8.38366        8.40474
H          7.79074        7.55169        7.79991
H          6.43527        8.15001        8.74484
H          8.07254        8.43557        9.28440
C          5.47686        5.68919        4.37887
C          6.22225        5.31943        5.49852
H          7.28505        5.52663        5.53238
C          5.60800        4.67075        6.55201
H          6.18927        4.37403        7.41117
C          4.24804        4.39900        6.50226
H          3.77021        3.88991        7.32451
C          3.50404        4.77686        5.39742
H          2.44652        4.56593        5.35733
C          4.11162        5.42503        4.33514
H          3.52374        5.71545        3.47498
C          5.18036        6.44594        1.63819
C          4.81644        5.19905        1.13330
H          5.22785        4.29588        1.56301
C          3.93097        5.12124        0.07511
H          3.65390        4.15552       -0.31773
C          3.40419        6.27724       -0.48192
H          2.71746        6.21064       -1.31110
C          3.75966        7.51748        0.02239
H          3.34808        8.41671       -0.41021
C          4.64682        7.60329        1.08084
H          4.92533        8.57222        1.48030
