69
CSD_code = LEFLEO | q = 0 | S = 0 | Stoichiometry = C24H40Cl2Si2Ti | MND = 12
Ti         3.17895        4.43936        4.88956
Cl         2.18377        4.64135        6.90164
Cl         1.12292        4.36015        3.94597
Si         6.06990        6.27875        6.46365
Si         6.84893        2.65392        5.18301
C          4.65855        6.12340        5.22300
C          4.73583        5.81237        3.81998
C          3.50402        6.15653        3.21634
C          2.68789        6.77138        4.20736
C          3.39637        6.77374        5.42249
C          6.02447        5.63993        3.07811
H          5.85950        5.37332        2.03734
H          6.66121        4.89891        3.54634
H          6.55513        6.59555        3.09269
C          3.13994        6.07610        1.76341
H          3.03184        7.08115        1.35066
H          2.18799        5.55631        1.63754
H          3.90109        5.55380        1.18736
C          1.37247        7.44868        3.98200
H          1.51049        8.53260        3.99881
H          0.66229        7.18640        4.76705
H          0.94358        7.16560        3.02405
C          2.95184        7.55457        6.61905
H          3.12578        8.61705        6.42926
H          3.49319        7.26744        7.51326
H          1.88599        7.41970        6.80095
C          6.57287        8.13180        6.44820
H          7.33245        8.33315        7.19674
H          5.72718        8.77834        6.65671
H          6.97775        8.42730        5.48498
C          5.50312        5.80053        8.23152
H          4.56830        5.24555        8.21865
H          5.35501        6.68391        8.84590
H          6.24569        5.19079        8.73739
C          7.71156        5.34510        6.10754
H          8.06414        5.52627        5.09402
H          8.44794        5.82217        6.75968
C          5.00053        2.92609        4.89916
C          4.07745        2.56256        5.93391
C          2.86003        2.13969        5.33946
C          3.01423        2.22066        3.93177
C          4.30233        2.72895        3.65666
C          4.39503        2.39896        7.38881
H          3.59509        2.79637        8.01355
H          5.31961        2.90610        7.64465
H          4.50120        1.33692        7.61866
C          1.67131        1.56145        6.04414
H          0.74556        1.96444        5.62939
H          1.69878        1.79095        7.10730
H          1.65745        0.47573        5.92201
C          2.07858        1.66196        2.90441
H          2.44972        0.68872        2.57150
H          2.00705        2.31424        2.03484
H          1.08075        1.52849        3.31445
C          4.86247        2.69458        2.26603
H          4.91948        1.65466        1.93410
H          5.85674        3.11823        2.21388
H          4.20877        3.21958        1.56818
C          6.99490        0.89936        5.95345
H          6.22431        0.23569        5.57251
H          6.90686        0.91621        7.03413
H          7.95554        0.45283        5.71628
C          7.96615        2.51042        3.62816
H          8.07806        3.42213        3.05164
H          7.61902        1.73107        2.95805
H          8.96130        2.22612        3.95821
C          7.73922        3.84406        6.39793
H          7.36985        3.68011        7.41010
H          8.78352        3.52028        6.41509
