83
CSD_code = LUGNOQ | q = 0 | S = 0 | Stoichiometry = C40H36FeN2S2Si2 | MND = 4
Fe         6.26779       14.43762        3.22382
S          5.43336       16.47939        3.93848
S          7.42045       12.56950        2.92928
Si         7.52731       16.66473        4.22272
Si         6.67342       11.23211        1.46761
N          5.92985       14.74373        1.50030
N          4.71118       13.64300        3.60312
C          5.80386       15.00551        0.38308
C          5.63871       15.33602       -1.00122
C          3.74615       13.11351        3.94873
C          2.54926       12.46716        4.39992
C          7.96850       18.40229        4.81374
C          7.09892       19.13346        5.61231
C          7.44355       20.39370        6.06581
C          8.66926       20.94084        5.72543
C          9.54292       20.22479        4.92431
C          9.19147       18.96584        4.47293
C          8.41003       16.36231        2.55534
C          9.36660       15.36583        2.38548
C         10.02668       15.21483        1.17735
C          9.73623       16.05612        0.11747
C          8.77587       17.04381        0.26659
C          8.12132       17.19266        1.47466
C          8.21417       15.37162        5.44445
C          7.41954       14.31675        5.88083
C          7.93774       13.31405        6.68272
C          9.26495       13.36106        7.07108
C         10.06462       14.41775        6.66542
C          9.54264       15.41102        5.85803
C          4.80896       10.88094        1.57332
C          4.32923        9.68548        2.09764
C          2.97341        9.40713        2.12000
C          2.06910       10.32510        1.61215
C          2.52969       11.52612        1.09701
C          3.88538       11.79901        1.08257
C          6.99305       11.89209       -0.28513
C          6.21812       11.48057       -1.36506
C          6.47519       11.93943       -2.64492
C          7.52103       12.82015       -2.86860
C          8.29907       13.24239       -1.80364
C          8.03332       12.78204       -0.52687
C          7.59011        9.59038        1.68362
C          7.40165        8.57263        0.75433
C          8.03605        7.35249        0.89536
C          8.87595        7.12984        1.97432
C          9.07785        8.13460        2.90489
C          8.43895        9.35297        2.75803
H          6.56092       15.77993       -1.37515
H          5.42334       14.43368       -1.57437
H          4.82108       16.04798       -1.11476
H          2.40693       12.66176        5.46290
H          1.69531       12.85735        3.84727
H          2.62480       11.39308        4.23014
H          6.13963       18.70760        5.86573
H          6.75618       20.95201        6.68516
H          8.94215       21.92475        6.07946
H         10.49829       20.65024        4.65063
H          9.87185       18.41432        3.83858
H          9.61021       14.70942        3.20928
H         10.77633       14.44389        1.06736
H         10.26278       15.94959       -0.82057
H          8.54905       17.70767       -0.55679
H          7.38000       17.97037        1.59524
H          6.35793       14.29726        5.62558
H          7.30643       12.49761        7.00176
H          9.67568       12.57867        7.69263
H         11.09940       14.46226        6.97437
H         10.17014       16.23213        5.54070
H          5.03144        8.95976        2.48263
H          2.62132        8.46881        2.52557
H          1.01083       10.10522        1.61743
H          1.82977       12.24854        0.70100
H          4.23919       12.73977        0.68628
H          5.39870       10.79500       -1.19922
H          5.86239       11.60701       -3.47143
H          7.72692       13.17460       -3.86872
H          9.11603       13.92966       -1.96979
H          8.63495       13.12040        0.30380
H          6.74811        8.74157       -0.08968
H          7.87652        6.57219        0.16442
H          9.37174        6.17619        2.08717
H          9.73414        7.96713        3.74718
H          8.59596       10.13922        3.48162
