69
CSD_code = LURLUG | q = 0 | S = 0 | Stoichiometry = C24H41OScSi2 | MND = 8
Sc         4.85694        9.76837        2.54457
Si         7.59629        7.50719        1.83587
Si         6.48099       12.12116        4.71635
O          4.13872        7.87036        3.94263
C          6.84724        9.23355        1.66833
H          6.75156        9.44440        0.58781
H          7.60833        9.94372        2.02665
C          9.03204        7.14922        0.61228
H          8.70204        7.23032       -0.41941
H          9.43474        6.14977        0.74789
H          9.84826        7.85214        0.74870
C          8.31957        7.25714        3.59449
H          9.22996        7.83369        3.72274
H          8.56877        6.21585        3.77467
H          7.62407        7.57048        4.36722
C          6.28601        6.13396        1.53460
H          5.29556        6.44161        1.86231
H          6.53787        5.22064        2.06555
H          6.21639        5.88261        0.48114
C          4.89247       11.21224        4.26153
H          4.13800       11.98046        4.02000
H          4.50977       10.69847        5.16026
C          7.81168       10.86209        5.27681
H          7.55247       10.41267        6.23101
H          8.77992       11.33702        5.39762
H          7.92143       10.06182        4.55022
C          6.31034       13.41512        6.12537
H          5.56914       14.16991        5.88008
H          7.24907       13.92818        6.31166
H          6.00375       12.94756        7.05636
C          7.09098       13.05795        3.15961
H          6.98143       12.43962        2.26981
H          8.13472       13.34248        3.24180
H          6.51852       13.96645        3.00065
C          2.86743        8.66147        1.66942
C          3.57659        8.99319        0.48234
C          3.58292       10.40633        0.36810
C          2.87160       10.94816        1.46658
C          2.44161        9.87179        2.29025
C          4.04193        8.02243       -0.56846
H          3.47321        8.17127       -1.48925
H          3.88599        6.99849       -0.23450
H          5.09936        8.14985       -0.80530
C          4.07515       11.18451       -0.81866
H          4.47787       12.15091       -0.51700
H          3.25642       11.37038       -1.51820
H          4.85141       10.63749       -1.35057
C          2.45067       12.38583        1.59910
H          2.01222       12.57558        2.57667
H          1.70246       12.62837        0.84082
H          3.29341       13.06414        1.45945
C          1.46684        9.96317        3.43650
H          1.80541       10.65481        4.21063
H          1.31971        8.98235        3.88835
H          0.49637       10.31365        3.07654
C          2.62870        7.31221        2.20447
C          1.80313        6.39911        1.56272
H          1.33166        6.69186        0.63666
C          1.57687        5.14386        2.10099
H          0.93182        4.44429        1.59152
C          2.17207        4.79513        3.29775
H          1.99334        3.82349        3.73269
C          3.01516        5.68310        3.95183
H          3.48050        5.37360        4.87384
C          3.25520        6.93230        3.40498
C          4.75791        7.52198        5.16963
H          4.01079        7.36593        5.95424
H          5.39588        8.36477        5.43747
H          5.37193        6.62350        5.05944
