64
CSD_code = MECFEF | q = 0 | S = 0 | Stoichiometry = C27H32O2RuSi2 | MND = 9
Ru         4.32574        0.44929       12.43179
Si         5.48501        2.47502       13.03603
Si         2.10174        1.34987       12.66180
O          4.31699        1.51148        9.63807
O          3.40518        2.43094       14.93935
C          4.30532        1.13134       10.73193
C          6.06209       -1.13207       12.49662
C          5.89465       -0.63736       13.79667
C          4.63625       -0.69134       14.44198
C          3.54798       -1.30013       13.79648
C          3.68595       -1.77429       12.48253
C          4.91960       -1.62603       11.81759
C          7.41537       -1.23407       11.85599
C          4.90411        4.27758       12.66909
C          7.27552        2.42714       12.29015
C          1.54435        3.14595       12.23501
C          0.90166        0.23830       11.61830
C          5.73081        2.46356       14.94418
C          6.92266        2.41917       15.64839
C          6.92270        2.29816       17.02862
C          5.73217        2.22424       17.73259
C          4.51392        2.28551       17.06863
C          4.55290        2.41072       15.68329
C          1.53784        1.11771       14.48825
C          0.47215        0.36175       14.94975
C          0.26771        0.18521       16.30850
C          1.12239        0.76195       17.23336
C          2.19002        1.54542       16.81573
C          2.35994        1.70741       15.44385
C          3.14926        2.28021       17.73860
C          3.18966        1.67408       19.14125
C          2.67287        3.74315       17.83761
H          6.75705       -0.29362       14.35878
H          4.55845       -0.40361       15.48602
H          2.62380       -1.46448       14.34039
H          2.87297       -2.30600       12.00347
H          5.04552       -2.05836       10.82839
H          7.69870       -2.28425       11.76047
H          7.40960       -0.79656       10.85860
H          8.17135       -0.72879       12.45229
H          5.71196        4.97948       12.85072
H          4.59174        4.38245       11.63650
H          4.07097        4.55668       13.30101
H          7.88289        1.62431       12.69391
H          7.22813        2.29601       11.21383
H          7.79552        3.35946       12.48273
H          1.90657        3.85386       12.96909
H          1.91971        3.44816       11.26414
H          0.46103        3.21001       12.21363
H         -0.10309        0.64713       11.62377
H          1.23244        0.19903       10.58518
H          0.84248       -0.78126       11.98598
H          7.85843        2.46877       15.11222
H          7.85903        2.25746       17.56702
H          5.76538        2.12336       18.80595
H         -0.19481       -0.10372       14.24005
H         -0.56328       -0.41206       16.65617
H          0.94253        0.59813       18.28414
H          2.20472        1.71517       19.59887
H          3.52094        0.63782       19.10847
H          3.86451        2.24033       19.77780
H          3.35646        4.31810       18.45939
H          2.63596        4.20004       16.85113
H          1.67701        3.78367       18.27472
