103
CSD_code = MEDGUY | q = 0 | S = 0 | Stoichiometry = C36H57MoN3OS3Si2 | MND = 4
Mo         7.72331        9.91671       11.17708
S          8.24068       13.19176       11.75528
Si         9.67702       10.58839        8.47231
O          9.04149       10.08622        9.87324
N          7.71791       10.51212       12.83822
C          9.36376        9.26860        7.11835
H          8.30742        9.19917        6.87760
H          9.70802        8.27890        7.40890
H          9.88828        9.53991        6.20800
S          5.57975       11.31998        7.55556
Si         5.81143        7.31415       10.60120
N          6.31389       10.63290       10.41326
C         11.58322       10.79562        8.64304
H         11.89886       11.01538        9.65916
H         11.92787       11.60885        8.01251
H         12.11082        9.90273        8.31980
S          9.86946        8.52343       12.48003
C          8.85693       12.24344        7.97678
H          8.23635       12.11966        7.09577
H          9.57894       13.02362        7.75654
H          8.20887       12.59623        8.77947
N          6.98895        8.10681       11.62959
C          7.49083       11.44968       13.74559
C          7.65406       12.81226       13.39183
C          7.32572       13.81879       14.27746
H          7.41708       14.84679       13.96090
C          6.88078       13.51242       15.55327
H          6.63074       14.30375       16.24310
C          6.75562       12.18285       15.93377
H          6.41366       11.93976       16.92998
C          7.04941       11.16649       15.05298
H          6.93521       10.12765       15.33291
C         10.08209       13.38678       12.07542
C         10.66504       13.88604       10.76037
H         11.73913       14.03485       10.86053
H         10.20520       14.83025       10.47923
H         10.48158       13.16356        9.97093
C         10.31569       14.40577       13.18121
H         11.38525       14.56709       13.30783
H          9.90646       14.05855       14.12689
H          9.85019       15.35438       12.92626
C         10.65980       12.02999       12.44766
H         11.74094       12.10063       12.56758
H         10.43822       11.30062       11.66375
H         10.23548       11.67181       13.38535
C          5.22707       11.39198       10.27400
C          4.73667       11.84116        9.02644
C          3.66319       12.71397        8.97040
H          3.34676       13.10379        8.01525
C          2.99966       13.09755       10.12116
H          2.15810       13.77090       10.05779
C          3.42924       12.62228       11.35408
H          2.91309       12.91763       12.25606
C          4.52276       11.79267       11.43067
H          4.89489       11.42565       12.38095
C          4.26417       10.48401        6.50894
C          5.05561        9.53347        5.61435
H          4.38160        8.99412        4.95069
H          5.60674        8.81368        6.21301
H          5.76660       10.09209        5.00983
C          3.30369        9.71457        7.40138
H          2.61031        9.14169        6.78642
H          2.72766       10.39065        8.03004
H          3.84948        9.03019        8.04620
C          3.53212       11.50469        5.64605
H          2.92661       10.98904        4.90138
H          4.24458       12.14416        5.13034
H          2.87070       12.12756        6.24129
C          7.27906        7.62083       12.88208
C          8.57846        7.72314       13.41420
C          8.88044        7.27035       14.68769
H          9.88461        7.40051       15.06206
C          7.90894        6.67004       15.46711
H          8.14688        6.31698       16.45830
C          6.62483        6.54403       14.95987
H          5.85022        6.08976       15.56040
C          6.31708        7.00770       13.69721
H          5.30600        6.93550       13.32894
C         10.63636        7.09709       11.52649
C         11.86366        7.70880       10.86400
H         12.38038        6.96089       10.26515
H         12.55139        8.08979       11.61542
H         11.56594        8.53138       10.21741
C         11.02460        5.98671       12.48989
H         11.51896        5.18471       11.94411
H         10.14804        5.57579       12.98644
H         11.70871        6.36179       13.24694
C          9.64326        6.61292       10.48242
H         10.11205        5.86987        9.83689
H          9.31484        7.45385        9.86532
H          8.77469        6.15625       10.95527
C          5.86371        5.41366       10.87265
H          6.34702        5.14442       11.80697
H          6.39372        4.91169       10.06914
H          4.85957        5.00472       10.89845
C          6.38376        7.67826        8.81883
H          6.56625        8.74612        8.69457
H          5.62178        7.37628        8.10694
H          7.29341        7.14531        8.55525
C          4.03491        7.97196       10.88529
H          4.02404        9.05910       10.86701
H          3.61996        7.65867       11.83917
H          3.36198        7.61762       10.11005
