79
CSD_code = MEDGOS | q = 0 | S = 0 | Stoichiometry = C26H44N2O2S2Si2W | MND = 6
S          3.15365        7.77582       10.17208
Si         3.98050       10.52393        6.51855
O          4.93212       11.73561        9.10108
N          3.33657        9.73696        7.93527
C          2.08686        9.21457        8.06845
W          4.66126       10.10458        9.47526
S          2.19177       11.06656       10.55249
O          5.90269        8.99012        9.17331
C          1.81777        8.27192        9.09057
N          4.82645       10.07471       11.53275
Si         6.53177       10.08918       11.89689
C          0.55271        7.75054        9.30074
H          0.40442        7.06091       10.11785
C         -0.49474        8.11382        8.47656
H         -1.48020        7.70513        8.63382
C         -0.25747        9.01736        7.44880
H         -1.06853        9.31341        6.79912
C          0.99334        9.55672        7.25015
H          1.15350       10.27921        6.46633
C          3.88753        6.30250        9.25353
C          2.89485        5.15294        9.33586
H          3.31645        4.27021        8.85857
H          1.96726        5.40932        8.82891
H          2.67168        4.91517       10.37301
C          5.17579        6.00815       10.00629
H          5.68858        5.15788        9.56098
H          4.97243        5.78908       11.05257
H          5.82201        6.88557        9.94514
C          4.18444        6.69590        7.81756
H          4.69358        5.87710        7.31045
H          4.83883        7.57469        7.81356
H          3.27078        6.92575        7.27137
C          3.34089       12.31211        6.21939
H          3.87593       13.01214        6.85321
H          2.28072       12.42276        6.42716
H          3.50851       12.60548        5.18807
C          3.56591        9.46893        4.96603
H          4.05090        8.49866        4.99970
H          3.91311        9.97607        4.07353
H          2.50291        9.29671        4.84874
C          5.89643       10.53470        6.62110
H          6.22417       11.35942        7.25737
H          6.35674       10.64868        5.64359
H          6.27345        9.61398        7.07393
C          3.81623        9.82259       12.40935
C          2.49256       10.21907       12.09894
C          1.42323        9.94178       12.93327
H          0.43295       10.24111       12.62509
C          1.62896        9.29149       14.13458
H          0.79902        9.07947       14.78972
C          2.91948        8.91072       14.47887
H          3.09419        8.39708       15.41331
C          3.98286        9.16313       13.64205
H          4.97366        8.83421       13.91047
C          2.42500       12.87444       11.03161
C          2.43029       13.60702        9.69879
H          2.55539       14.67672        9.85514
H          1.50162       13.43551        9.15814
H          3.26440       13.23465        9.10118
C          3.75632       13.04354       11.74143
H          3.93622       14.09992       11.93768
H          4.55740       12.66267       11.09825
H          3.77148       12.50813       12.68967
C          1.25392       13.28446       11.91146
H          1.33363       14.34166       12.15789
H          1.25076       12.71370       12.83738
H          0.31194       13.11719       11.39507
C          7.45353       11.06960       10.52882
H          7.59962       10.42959        9.65585
H          8.42478       11.42228       10.86450
H          6.87044       11.93231       10.19736
C          7.33574        8.35545       12.10545
H          7.54855        7.92202       11.13344
H          6.70215        7.65859       12.64627
H          8.27436        8.43641       12.64412
C          6.83170       11.08145       13.51544
H          6.46889       12.10095       13.43644
H          7.89385       11.12850       13.72496
H          6.35198       10.63179       14.37597
