71
CSD_code = MEVHOK | q = 0 | S = 0 | Stoichiometry = C32H36Si2Ti | MND = 12
Ti        13.55095       13.94229        6.98816
Si        15.92541       16.38168        8.71696
C         14.41444       12.76760        8.37244
C         14.96544       12.09454        9.22244
C         15.62944       11.32002       10.20988
C         17.01510       11.15373       10.15672
H         17.57326       11.61543        9.35371
C         17.66338       10.40579       11.12001
H         18.73603       10.28090       11.07183
C         16.94351        9.81593       12.14699
H         17.45362        9.23109       12.89845
C         15.56853        9.97999       12.20799
H         15.00665        9.52278       13.01008
C         14.91081       10.72606       11.24953
H         13.83999       10.85953       11.29395
C         15.32758       15.48740        7.17166
C         14.41440       15.97890        6.19694
H         13.89854       16.93048        6.25282
C         14.44317       15.12586        5.08359
H         13.95450       15.30521        4.13408
C         15.33830       14.07403        5.36075
H         15.65731       13.30744        4.66419
C         15.89094       14.30303        6.63243
H         16.70362       13.74249        7.07792
C         17.79760       16.72845        8.49675
H         17.99479       17.31290        7.60322
H         18.36539       15.80676        8.41669
H         18.19025       17.28135        9.34383
C         15.67517       15.32102       10.28588
H         16.31252       14.44181       10.26597
H         14.64707       14.97312       10.35732
H         15.91493       15.87916       11.18606
C         15.00415       18.05165        8.84913
H         15.24973       18.70537        8.01747
H         15.27388       18.57432        9.76117
H         13.92805       17.90750        8.85518
C         12.68970       15.11717        8.37379
C         12.13671       15.79356        9.22002
C         11.47257       16.56444       10.21021
C         10.08688       16.73099       10.15685
H          9.52875       16.26943        9.35384
C          9.43859       17.47899       11.12012
H          8.36608       17.60313       11.07235
C         10.15839       18.06851       12.14737
H          9.64821       18.65323       12.89879
C         11.53343       17.90447       12.20836
H         12.09542       18.36262       13.00975
C         12.19119       17.15861       11.24979
H         13.26206       17.02658       11.29338
C         11.77421       12.39747        7.17154
Si        11.17632       11.50334        8.71688
C          9.30413       11.15668        8.49669
H          9.10691       10.57221        7.60319
H          8.73645       12.07843        8.41656
H          8.91141       10.60387        9.34380
C         11.42672       12.56408       10.28573
H         10.78938       13.44329       10.26581
H         12.45484       12.91198       10.35712
H         11.18700       12.00600       11.18595
C         12.09771        9.83346        8.84926
H         11.85223        9.17967        8.01763
H         11.82799        9.31083        9.76132
H         13.17380        9.97772        8.85535
C         12.68743       11.90584        6.19691
C         12.65888       12.75888        5.08356
H         13.20324       10.95425        6.25286
H         13.14766       12.57949        4.13412
C         11.76378       13.81076        5.36062
C         11.21108       13.58194        6.63231
H         11.44488       14.57736        4.66401
H         10.39848       14.14263        7.07776
