73
CSD_code = MIKPAX | q = 0 | S = 0 | Stoichiometry = C25H41MoN3OSi2 | MND = 5
Mo         6.95859        1.73369        3.44342
Si         3.78211        1.37264        4.56873
Si         8.08490        4.94414        4.08154
O          6.30705        0.14037        2.78684
N          8.21582        1.19003        4.51600
N          5.05743        2.21876        3.74903
N          7.17553        3.65160        3.32213
C          9.00340        0.72029        5.49503
C          8.60275        0.80147        6.84174
C          9.40466        0.31166        7.84927
C         10.62875       -0.27101        7.55593
C         11.04202       -0.35697        6.23595
C         10.24868        0.12863        5.21777
C          4.92606        3.13790        2.75227
C          6.07322        3.96661        2.54303
C          6.00326        5.00289        1.61668
C          4.85179        5.21223        0.87814
C          3.74501        4.39591        1.06399
C          3.77581        3.37542        1.99420
C          2.50109        2.59299        5.29356
C          2.92304        0.07984        3.44334
C          4.72876        0.47543        5.96218
C          6.80109        6.02834        5.00166
C          9.10523        6.06605        2.89995
C          9.29383        4.12360        5.29852
C          8.09095        1.44734        1.58567
C          8.30555       -0.07532        1.51670
C          7.06157       -0.80533        2.10078
C          9.44407        2.15240        1.49806
C          7.23260        1.89678        0.39625
C          7.50203       -1.88778        3.10165
C          6.21717       -1.45880        0.99177
H          7.64697        1.26153        7.05846
H          9.07648        0.38365        8.87678
H         11.25456       -0.65230        8.34866
H         11.99537       -0.80818        5.99920
H         10.57306        0.06493        4.18812
H          6.86814        5.63039        1.46477
H          4.81766        6.01351        0.15521
H          2.84997        4.56206        0.48256
H          2.91194        2.74596        2.14706
H          2.97462        3.31279        5.95418
H          1.75075        2.06085        5.86816
H          1.98813        3.15197        4.51772
H          2.15179        0.51618        2.81483
H          2.45800       -0.70631        4.03012
H          3.66146       -0.38222        2.79278
H          5.62559        0.00553        5.55500
H          4.12424       -0.29617        6.42715
H          5.03446        1.16501        6.74418
H          6.10740        6.48975        4.30407
H          7.27808        6.82070        5.56898
H          6.21609        5.42715        5.69340
H          9.51916        5.51928        2.05731
H          9.93965        6.50231        3.44019
H          8.51587        6.88863        2.50521
H          8.76847        3.56295        6.06507
H          9.90395        4.87185        5.79288
H          9.96001        3.43370        4.79060
H          8.49509       -0.40725        0.48968
H          9.17884       -0.33408        2.12074
H          9.95326        1.90197        0.56290
H         10.08647        1.86425        2.32837
H          9.31076        3.23293        1.53221
H          7.20829        2.98535        0.32345
H          6.20181        1.54030        0.49353
H          7.63347        1.51335       -0.54677
H          8.01872       -1.40870        3.93409
H          8.16467       -2.60634        2.62553
H          6.62855       -2.40990        3.48819
H          5.33249       -1.91842        1.42858
H          6.79362       -2.22608        0.48099
H          5.89671       -0.71518        0.26601
