55
CSD_code = MISDAV | q = 0 | S = 0 | Stoichiometry = C17H27O7PSi2W | MND = 6
C          9.44526       22.52556        0.44445
C          8.29621       21.83064        0.40564
H          7.64428       21.85762        1.27031
C          7.87938       20.97875       -0.70954
C          6.60883       20.20860       -0.44557
H          5.79017       20.90221       -0.26583
H          6.72829       19.58975        0.44166
H          6.37019       19.58061       -1.29938
C         10.46626       22.56166       -0.63925
H         11.41301       22.92488       -0.24688
H         10.12757       23.22795       -1.43268
H         10.58295       21.57652       -1.08425
C          9.97449       24.60034        3.74999
H          9.42540       25.40640        4.24538
C          8.87757       23.09505        6.18634
H          8.01053       22.84644        5.57990
H          8.63390       23.99807        6.73927
H          9.00973       22.29781        6.91148
C         11.02603       21.69487        4.36640
H         12.07314       21.73100        4.08484
H         10.45668       21.44132        3.47661
H         10.90797       20.87946        5.07370
C         11.80786       24.05741        6.25378
H         11.49989       24.99401        6.70614
H         12.73431       24.23521        5.71989
H         12.02138       23.36290        7.05899
C         10.82223       26.15224        1.04528
H          9.81555       26.56025        1.08537
H         10.83577       25.39755        0.26650
H         11.48529       26.95424        0.73300
C         11.95029       26.93072        3.79524
H         12.23744       26.62740        4.79568
H         11.16998       27.67965        3.88926
H         12.80895       27.41178        3.33967
C         12.82438       24.24509        2.44898
H         12.48819       23.29580        2.04695
H         13.35973       24.04233        3.37017
H         13.53575       24.67005        1.74786
C          5.33701       26.38355        1.37296
C          6.20346       25.07346        3.77369
C          5.76972       23.66692        1.36447
C          7.61332       25.29724        0.04320
C          7.82908       26.88245        2.51582
O          9.80298       23.26834        1.52837
O          8.49141       20.88258       -1.75282
O          4.44429       27.03232        1.07850
O          5.86135       24.96180        4.85879
O          5.04444       22.83403        1.06723
O          8.05403       25.25140       -1.00906
O          8.27706       27.83824        2.95534
P          8.76313       23.86542        2.63291
H          8.45679       22.65691        3.29818
Si        10.44845       23.34560        5.12767
Si        11.37613       25.45475        2.73277
W          6.87440       25.23895        1.90061
