85
CSD_code = MONVUH | q = 0 | S = 0 | Stoichiometry = C32H44N6Si2Ti | MND = 5
Ti        -1.54746       -0.77095        3.64886
N         -2.33496       -0.34454        5.10733
N         -2.77384        0.09340        6.28501
N          0.12540        0.09477        3.20796
N         -2.34489       -2.24112        2.67677
N         -0.23810       -2.23365        4.22272
N         -2.64539        0.57773        2.61253
Si         1.35474        0.75837        4.18380
Si        -3.31354       -3.56478        3.13000
C         -2.35983        1.34456        6.75177
C         -2.16931        1.60340        8.11340
C         -1.71956        2.84091        8.52599
C         -1.44194        3.83861        7.60342
C         -1.60652        3.57910        6.25128
C         -2.05617        2.34718        5.82480
C         -3.59931       -0.72747        7.05838
C         -3.50477       -2.11494        6.90813
C         -4.31416       -2.95416        7.64455
C         -5.23873       -2.43306        8.53690
C         -5.35784       -1.05721        8.66826
C         -4.55423       -0.20585        7.93753
C          0.38763       -0.51245        1.94891
C         -1.47137       -2.28371        1.55328
C          0.05579       -2.05264        1.85426
C          0.83806       -2.60648        0.65727
C          0.41683       -2.70272        3.15048
C          1.37778       -3.70562        3.28317
C          1.66397       -4.21856        4.53368
C          0.98523       -3.71280        5.63662
C          0.04380       -2.72512        5.42837
C          3.08301       -0.01412        3.83568
C          0.92394        0.46615        6.02209
C          1.53813        2.65200        3.88959
C         -3.91601       -4.54891        1.59203
C         -2.45611       -4.89221        4.24052
C         -4.84733       -2.84174        4.01509
C         -2.16433        1.80728        2.35020
C         -2.91934        2.80201        1.75744
C         -4.23495        2.53649        1.39808
C         -4.72573        1.25568        1.64077
C         -3.90909        0.31778        2.24022
H         -2.35352        0.82654        8.84047
H         -1.57211        3.02745        9.58013
H         -1.09279        4.80448        7.93588
H         -1.38901        4.35029        5.52581
H         -2.18381        2.12271        4.77388
H         -2.79504       -2.49760        6.18515
H         -4.22287       -4.02418        7.52446
H         -5.86974       -3.09048        9.11574
H         -6.09452       -0.64353        9.34198
H         -4.67384        0.86340        8.02914
H          1.44865       -0.41050        1.66780
H         -0.19913       -0.02097        1.14392
H         -1.53879       -3.25152        1.03056
H         -1.76257       -1.50808        0.81195
H          0.64578       -3.66883        0.51572
H          1.90921       -2.45324        0.77870
H          0.52537       -2.08640       -0.24720
H          1.90014       -4.08469        2.41990
H          2.40494       -4.99574        4.64907
H          1.18500       -4.08268        6.62986
H         -0.51008       -2.29548        6.25669
H          3.81772        0.31764        4.56143
H          3.04582       -1.10039        3.87671
H          3.45195        0.26735        2.85370
H          1.01941        1.37917        6.59932
H         -0.10776        0.12914        6.09160
H          1.56346       -0.28232        6.48022
H          2.38280        3.04883        4.44316
H          0.65205        3.18243        4.22549
H          1.69425        2.89102        2.84077
H         -4.72014       -5.22838        1.85309
H         -3.11660       -5.14623        1.16316
H         -4.28480       -3.88681        0.81403
H         -3.11424       -5.73476        4.42905
H         -2.16259       -4.48352        5.20347
H         -1.55674       -5.28139        3.76700
H         -5.20293       -3.50842        4.79232
H         -4.59817       -1.88996        4.47996
H         -5.67180       -2.68195        3.32642
H         -1.12997        1.97793        2.63746
H         -2.48371        3.77328        1.57790
H         -4.85223        3.29311        0.93945
H         -5.73655        0.99422        1.36778
H         -4.25546       -0.68924        2.44735
