82
CSD_code = MONYUJ | q = 0 | S = 0 | Stoichiometry = C29H47FeN3Si2 | MND = 3
Fe        -0.60999        1.96858        3.06503
N          0.62249        0.50757        2.67553
N         -0.60955        3.80394        3.06442
Si         0.39535        4.58792        4.22952
C          1.01014        3.18422        5.37090
H          0.64106        2.22398        5.01199
H          0.68286        3.30666        6.39717
H          2.09250        3.14093        5.37404
C         -0.51719        5.91912        5.25772
H         -0.70980        6.79863        4.65260
H          0.07827        6.23251        6.10961
H         -1.47212        5.56510        5.63187
C          1.91308        5.43283        3.43396
H          1.61791        6.26832        2.80901
H          2.46585        4.73383        2.81551
H          2.58945        5.81279        4.19355
C          0.55116       -0.80813        2.66972
C         -0.60971       -1.46818        3.06491
H         -0.60968       -2.54606        3.06462
C          1.70502       -1.65807        2.19726
H          2.53078       -1.04263        1.85011
H          1.37178       -2.29551        1.37955
H          2.05538       -2.30467        2.99971
C          1.84259        1.18264        2.55658
C          2.07819        2.01707        1.45216
C          3.27455        2.70938        1.35953
H          3.44664        3.34273        0.49994
C          4.25646        2.60223        2.33358
C          4.01524        1.77097        3.41795
H          4.77023        1.67252        4.18608
C          2.83528        1.05764        3.54687
C          2.64672        0.16860        4.74141
H          3.02793        0.65586        5.63631
H          3.19683       -0.76370        4.61097
H          1.59669       -0.07047        4.88944
C          1.05075        2.15503        0.37106
H          1.52629        2.20363       -0.60663
H          0.48403        3.07153        0.52517
H          0.35776        1.31620        0.39242
C          5.53161        3.38409        2.23448
H          5.76729        3.61341        1.19772
H          6.36100        2.83248        2.67208
H          5.43225        4.32666        2.77457
C         -1.77060       -0.80842        3.46053
N         -1.84196        0.50728        3.45554
Si        -1.61437        4.58808        1.89937
C         -2.22906        3.18450        0.75779
H         -1.86121        2.22416        1.11775
H         -1.90039        3.30613       -0.26815
H         -3.31145        3.14215        0.75341
C         -0.70177        5.91991        0.87201
H         -0.50942        6.79909        1.47770
H         -1.29709        6.23372        0.02018
H          0.25329        5.56625        0.49785
C         -3.13233        5.43205        2.69544
H         -2.83742        6.26707        3.32114
H         -3.68488        4.73233        3.31326
H         -3.80877        5.81245        1.93613
C         -3.06194        1.18245        3.57467
C         -3.29745        2.01669        4.67927
C         -4.49361        2.70937        4.77186
H         -4.66560        3.34265        5.63151
C         -5.47542        2.60272        3.79765
C         -5.23437        1.77150        2.71321
H         -5.98937        1.67327        1.94507
C         -4.05462        1.05787        2.58429
C         -3.86624        0.16873        1.38980
H         -4.24843        0.65552        0.49508
H         -4.41554       -0.76396        1.52083
H         -2.81613       -0.06963        1.24114
C         -6.75033        3.38498        3.89663
H         -6.98604        3.61443        4.93335
H         -7.57984        2.83358        3.45898
H         -6.65066        4.32748        3.35648
C         -2.27032        2.15371        5.76083
H         -2.74631        2.20171        6.73834
H         -1.70323        3.07014        5.60768
H         -1.57760        1.31465        5.73921
C         -2.92434       -1.65875        3.93260
H         -3.75073       -1.04367        4.27876
H         -2.59142       -2.29551        4.75096
H         -3.27362       -2.30608        3.13031
