76
CSD_code = NEBCUS | q = 0 | S = 0 | Stoichiometry = C24H43ClN5Si2Ta | MND = 6
Ta        18.23699        2.39219       18.97946
N         17.87191        2.13407       20.72043
N         17.20023        4.07554       18.48328
N         20.01315        3.45937       18.77159
N         18.58186        2.17571       16.38750
N         16.03548        1.14346       18.21671
Cl        19.16583        0.26209       18.66893
Si        16.41302        5.14328       19.58644
Si        21.52060        3.30303       19.59774
C         17.73677        1.70385       22.05864
C         16.33996        2.04608       22.61341
H         16.18857        3.12019       22.58251
H         16.24800        1.69775       23.63950
H         15.57650        1.56652       22.00646
C         18.79895        2.35929       22.96485
H         19.78803        2.19518       22.54860
H         18.75382        1.93350       23.96458
H         18.62070        3.42855       23.02902
C         17.92246        0.17080       22.08640
H         18.88931       -0.08655       21.66302
H         17.15155       -0.29536       21.47774
H         17.85949       -0.20756       23.10365
C         18.80818        1.00989       15.79619
H         18.15400        0.20045       16.09127
C         19.81311        0.81821       14.86752
H         19.95716       -0.14532       14.40596
C         20.64404        1.89079       14.58022
H         21.47089        1.77843       13.89375
C         20.39784        3.11097       15.18177
H         21.03513        3.95384       14.97036
C         19.33197        3.22938       16.07184
C         18.96266        4.52426       16.74886
C         17.45369        4.51202       17.13712
H         17.06611        5.52161       16.97958
H         16.92741        3.85886       16.41987
C         19.84151        4.67463       18.01621
H         20.81705        5.05747       17.69760
H         19.36788        5.44604       18.64659
C         19.21048        5.72740       15.83008
H         18.91032        6.64084       16.33947
H         18.62797        5.63350       14.91470
H         20.26010        5.82982       15.56585
C         14.82232        4.29131       20.22860
H         15.01237        3.23379       20.37435
H         13.98622        4.39848       19.54327
H         14.51267        4.71184       21.17902
C         15.86355        6.78978       18.77482
H         16.70727        7.37389       18.42165
H         15.33346        7.39554       19.50123
H         15.19278        6.62963       17.93669
C         17.58926        5.57022       21.02991
H         18.21564        6.43261       20.81997
H         18.23444        4.71245       21.19391
H         17.04801        5.77803       21.94702
C         22.96789        3.58363       18.36198
H         23.11539        4.63673       18.14257
H         22.79909        3.06664       17.42129
H         23.89705        3.21023       18.77891
C         21.70389        4.60851       20.99566
H         20.92040        4.50274       21.73927
H         21.64425        5.61756       20.59823
H         22.65916        4.51283       21.50176
C         21.71338        1.55640       20.32515
H         20.80184        1.23936       20.81953
H         22.52145        1.53230       21.04890
H         21.93668        0.82557       19.55504
C         14.98093        1.83411       17.80239
H         15.10707        2.90783       17.77658
C         13.78535        1.23419       17.43996
H         12.95356        1.83554       17.10790
C         13.68434       -0.14625       17.51735
H         12.76761       -0.64873       17.24563
C         14.78609       -0.86643       17.95188
H         14.75332       -1.94174       18.02905
C         15.94189       -0.17922       18.28984
H         16.83472       -0.69185       18.62519
