104
CSD_code = NEZQIS | q = 0 | S = 0 | Stoichiometry = C32H62BN6ScSi2 | MND = 5
Sc        -0.82335       -0.34557       11.78011
B          1.52760        1.72329       12.30565
N          0.47675        2.24188       11.29392
N         -0.17994        1.39955       10.45570
C          0.95880        4.69727       11.51189
C          0.38865        3.50560       10.83133
C         -0.33695        3.47613        9.65728
C         -0.66451        2.13221        9.45112
C         -1.42720        1.57142        8.28064
C         -1.25229        0.05523        8.19055
C         -0.90575        2.21034        6.98597
C         -2.91269        1.90742        8.45740
N          2.24553        0.52367       11.66227
N          1.63597       -0.65621       11.40216
C          4.52148        1.57579       11.48872
C          3.55217        0.45670       11.34815
C          3.80329       -0.81510       10.87467
C          2.57789       -1.48207       10.92949
C          2.31160       -2.90634       10.52201
C          1.59570       -3.62565       11.66937
C          3.61917       -3.64355       10.21640
C          1.44125       -2.89229        9.26000
N          0.95525        1.25271       13.65777
N          0.17823        0.15064       13.79856
C          2.15413        2.92602       15.10744
C          1.31283        1.72379       14.86811
C          0.74768        0.90221       15.82130
C          0.04858       -0.07654       15.10922
C         -0.74632       -1.19471       15.73152
C          0.04317       -1.78280       16.90988
C         -1.03138       -2.31367       14.73056
C         -2.07084       -0.61197       16.24377
C         -1.79787       -2.34166       11.09478
Si        -3.64307       -2.72894       10.93793
C         -4.57236       -2.62805       12.61002
C         -3.93498       -4.52305       10.30729
C         -4.54085       -1.60842        9.66845
C         -2.75412        0.71429       12.44329
Si        -3.08434        2.45038       13.09550
C         -4.68159        2.53302       14.16554
C         -3.33076        3.73150       11.69341
C         -1.70168        3.13962       14.22903
H          2.30686        2.58457       12.50565
H          0.59884        4.75861       12.53713
H          0.65464        5.59522       10.98072
H          2.04666        4.65513       11.53504
H         -0.58794        4.31666        9.04308
H         -1.67468       -0.42663        9.07643
H         -0.19677       -0.19935        8.11048
H         -1.76629       -0.32562        7.31020
H          0.16162        2.03153        6.87532
H         -1.07738        3.28293        6.98065
H         -1.41891        1.78074        6.12848
H         -3.27648        1.49320        9.39469
H         -3.49331        1.49036        7.63760
H         -3.06233        2.98407        8.47666
H          5.49023        1.25942       11.11053
H          4.63282        1.86656       12.53194
H          4.19142        2.44664       10.92539
H          4.74735       -1.19261       10.54158
H          0.71303       -3.05869       11.96708
H          2.26001       -3.71222       12.52767
H          1.29292       -4.62480       11.36377
H          4.28218       -3.63168       11.07849
H          4.13505       -3.19227        9.37242
H          3.40202       -4.67980        9.96601
H          0.55038       -2.28901        9.43148
H          1.14272       -3.90300        8.99040
H          1.99555       -2.46166        8.42782
H          1.73827        3.79701       14.60602
H          3.16776        2.77366       14.74035
H          2.19733        3.12395       16.17531
H          0.83354        1.00966       16.88295
H          1.02079       -2.12685       16.57943
H         -0.49621       -2.62818       17.33131
H          0.18485       -1.04767       17.69669
H         -0.09845       -2.71712       14.33934
H         -1.64090       -1.94357       13.90248
H         -1.57265       -3.11962       15.22255
H         -1.88642        0.16068       16.98676
H         -2.67423       -1.39373       16.69997
H         -2.62961       -0.17030       15.42210
H         -1.38675       -2.62150       10.11099
H         -1.42624       -3.13184       11.76936
H         -4.65560       -1.60699       12.96542
H         -4.06585       -3.20546       13.37750
H         -5.57955       -3.02318       12.51768
H         -3.47345       -4.67752        9.33646
H         -4.99133       -4.75247       10.20500
H         -3.50817       -5.25270       10.98894
H         -4.54843       -0.56912        9.97926
H         -5.57422       -1.91721        9.54392
H         -4.06753       -1.65707        8.69298
H         -3.45249        0.57222       11.60186
H         -3.12858        0.02786       13.22219
H         -4.58749        1.92083       15.05833
H         -5.54233        2.16896       13.61239
H         -4.90584        3.54553       14.48789
H         -2.47505        3.76021       11.02774
H         -3.46868        4.73135       12.09426
H         -4.20587        3.49653       11.09599
H         -0.77299        3.25941       13.68148
H         -1.50721        2.47793       15.06725
H         -1.97443        4.10943       14.63548
