42
CSD_code = NISZIY | q = 0 | S = 0 | Stoichiometry = C14H22Cl3Si2Ta | MND = 11
Ta         1.12653        2.87182        3.70704
Cl         1.57070        0.99802        2.45574
Cl         2.12960        4.41037        2.38717
Cl         3.01057        2.40035        4.92428
Si        -0.13489        2.12195        6.97053
Si        -1.54736        2.73841        0.52741
C         -0.01956        3.48381        5.66794
C         -0.85685        3.53086        4.49476
C         -1.10444        2.59777        3.42444
C         -1.39021        3.43932        2.26513
C         -1.25076        4.77304        2.60625
C         -0.84705        4.85675        3.96347
C         -0.17770        5.68571        4.90410
C          0.31885        4.87204        5.89930
C          1.28604        2.31468        8.22394
C         -1.83770        2.25150        7.82428
C         -0.00147        0.44053        6.06672
C         -1.83258        0.85771        0.65463
C         -2.98650        3.58388       -0.39612
C          0.10461        3.08545       -0.36496
H         -1.62430        1.65307        3.53479
H         -1.37223        5.60039        1.92867
H         -0.03257        6.74918        4.82723
H          0.88641        5.21068        6.74997
H          1.20489        3.24537        8.77638
H          2.24934        2.30648        7.72376
H          1.27949        1.50547        8.94664
H         -1.93775        3.19120        8.35757
H         -1.97074        1.44959        8.54244
H         -2.65064        2.19404        7.10726
H         -0.86980        0.25236        5.44177
H          0.06454       -0.37817        6.77639
H          0.88475        0.39654        5.43314
H         -2.74333        0.62203        1.19692
H         -1.00370        0.37542        1.16441
H         -1.91691        0.41026       -0.33057
H         -2.84228        4.65743       -0.45939
H         -3.93624        3.40876        0.09883
H         -3.06739        3.20326       -1.40896
H          0.31201        4.15093       -0.40823
H          0.09831        2.71076       -1.38383
H          0.93212        2.61138        0.15724
