48
CSD_code = NOXVOL | q = 0 | S = 0 | Stoichiometry = C15H27NO2Si2W | MND = 9
W          0.95188        1.87264        4.65300
Si         0.92831        4.21483        3.75061
Si         2.06308        1.96745        2.40064
O         -2.12988        2.28775        4.40768
O         -0.68118       -0.22615        3.01842
N          2.35086        3.93003        2.40970
C         -0.97503        2.16925        4.48014
C         -0.05395        0.56185        3.59962
C          1.44552        5.76159        4.78533
C         -0.57188        4.86342        2.73436
C          1.15802        1.68400        0.72569
C          3.71360        1.01413        2.09227
C          3.64929        4.27253        2.98832
C          4.85260        4.12903        2.06062
C          2.14590        4.58884        1.12269
C          2.27856        6.10920        1.13770
C          1.39904        2.38352        6.89173
C          2.62189        2.51733        6.18531
C          1.01837        1.02259        6.84450
C          2.99408        1.23707        5.70950
C          1.99996        0.31837        6.10880
H          2.33553        5.59215        5.38189
H          0.63835        5.98994        5.47421
H          1.61339        6.65008        4.18334
H         -0.91178        4.11979        2.02124
H         -0.40649        5.79653        2.20602
H         -1.39254        5.02534        3.42553
H          0.18282        2.15865        0.71020
H          0.98770        0.61840        0.61225
H          1.71814        2.01817       -0.14282
H          3.50525       -0.04100        2.24369
H          4.50933        1.28479        2.77752
H          4.08455        1.11990        1.07635
H          3.78909        3.61668        3.84940
H          3.62052        5.30021        3.35750
H          5.76283        4.17243        2.65479
H          4.89690        4.93146        1.32927
H          4.83169        3.18413        1.53225
H          2.84837        4.17932        0.39149
H          1.14083        4.33350        0.79539
H          1.97300        6.49858        0.16922
H          3.30000        6.43093        1.32018
H          1.64040        6.54426        1.89890
H          0.92859        3.15316        7.48948
H          3.26083        3.39172        6.20268
H          0.19178        0.57712        7.38151
H          3.94337        0.97908        5.25848
H          2.04631       -0.75549        5.98470
