127
CSD_code = NOZHAN | q = 0 | S = 0 | Stoichiometry = C45H75N4Si2V | MND = 4
V          5.55564       10.55758       13.90547
Si         8.04119       11.52392       15.97624
Si         6.77438       11.18544       10.69890
N          4.73280       11.91275       13.69247
N          4.51446        9.19288       13.84448
N          3.67598        7.45493       15.20071
N          3.66873        7.16302       12.97879
C          4.09803       13.16165       13.63550
C          2.87823       13.21412       14.58146
C          3.62678       13.49164       12.20414
C          5.08883       14.25583       14.09172
C          2.22046       14.59169       14.52655
C          1.76232       14.88956       13.09989
C          2.97303       14.87121       12.16803
C          3.97838       15.93184       12.61299
C          4.42850       15.63125       14.04176
C          3.21930       15.65681       14.97452
C          4.00708        8.05542       13.98599
C          3.05892        6.15593       15.01396
C          2.99746        5.98471       13.49046
C          4.44469        7.69033       16.37361
C          3.86932        8.43842       17.40427
C          4.62052        8.68452       18.54466
C          5.90362        8.18450       18.66554
C          6.45369        7.42805       17.64888
C          5.73655        7.16470       16.48820
C          2.47848        8.99881       17.23608
C          2.58452       10.44008       16.73264
C          1.64868        8.92278       18.51795
C          6.36574        6.34463       15.38362
C          7.55288        7.09179       14.77487
C          6.79012        4.96456       15.89271
C          3.45089        7.53445       11.62627
C          2.34283        8.31382       11.28235
C          2.14185        8.61717        9.94253
C          2.99518        8.13448        8.96961
C          4.07500        7.34776        9.32225
C          4.32446        7.04313       10.65279
C          1.37372        8.81107       12.32858
C          1.52747       10.32208       12.50072
C         -0.06883        8.43630       11.97733
C          5.49471        6.16692       11.03300
C          6.80960        6.72156       10.48629
C          5.26620        4.73530       10.53950
C          6.28489       10.84793       15.80682
C          8.39037       12.00599       17.80306
C          8.40720       13.08792       14.92991
C          9.37519       10.21081       15.54538
C          6.94994       10.44484       12.42144
C          4.98772       10.89757       10.07146
C          7.97284       10.41470        9.40389
C          7.22394       13.05049       10.71541
H          2.16717       12.44268       14.28612
H          3.21808       12.99708       15.59575
H          4.48650       13.45557       11.53567
H          2.91730       12.72957       11.88139
H          5.41942       14.02057       15.10572
H          5.96234       14.23362       13.43922
H          1.35287       14.60144       15.19713
H          1.03682       14.13906       12.77904
H          1.27602       15.86732       13.06158
H          2.64710       15.08678       11.14372
H          4.84094       15.92811       11.94342
H          3.52104       16.92325       12.56709
H          5.15287       16.38927       14.36267
H          2.75016       16.64339       14.95104
H          3.53739       15.45974       16.00052
H          2.05804        6.14823       15.46413
H          3.64435        5.36459       15.49532
H          3.51345        5.07632       13.15649
H          1.96372        5.93533       13.12722
H          4.20622        9.27576       19.34593
H          6.48001        8.38772       19.55626
H          7.45754        7.04504       17.75714
H          1.96857        8.41343       16.46580
H          1.59290       10.84918       16.55082
H          3.16268       10.47122       15.80489
H          3.08303       11.05870       17.47637
H          1.67539        7.91856       18.93578
H          0.61376        9.17922       18.30198
H          2.01423        9.61957       19.26733
H          5.63589        6.19626       14.58396
H          8.34029        7.23915       15.51005
H          7.22779        8.06864       14.41435
H          7.96380        6.52973       13.93745
H          5.94971        4.44826       16.35409
H          7.58354        5.04646       16.63112
H          7.15648        4.35776       15.06680
H          1.30301        9.23070        9.65209
H          2.81685        8.37086        7.93076
H          4.73031        6.96939        8.55232
H          1.61430        8.35247       13.29130
H          1.33616       10.83406       11.56001
H          2.54476       10.54586       12.83492
H          0.81836       10.68382       13.24320
H         -0.72973        8.69074       12.80331
H         -0.15398        7.36847       11.78316
H         -0.41042        8.97089       11.09522
H          5.56874        6.15324       12.12444
H          6.93430        7.75591       10.79712
H          6.83170        6.68383        9.39993
H          7.64840        6.13754       10.86131
H          5.22428        4.70844        9.45321
H          4.32790        4.33919       10.92338
H          6.07680        4.08742       10.86733
H          5.60938       11.47906       16.39344
H          6.26232        9.85623       16.27257
H          8.25155       11.15831       18.46752
H          7.72208       12.79393       18.13672
H          9.40740       12.36269       17.93359
H          7.95890       13.97042       15.37549
H          8.01777       12.99590       13.91992
H          9.47677       13.26785       14.85963
H          9.33934        9.37993       16.24429
H         10.37166       10.63991       15.60477
H          9.25720        9.80567       14.54416
H          7.83291       10.87298       12.91253
H          7.12483        9.36255       12.33823
H          4.32716       10.73155       10.92072
H          4.93313       10.02148        9.43313
H          4.60837       11.73976        9.50139
H          9.00259       10.43952        9.74913
H          7.93188       10.95981        8.46574
H          7.72473        9.38018        9.18902
H          8.30073       13.19065       10.74415
H          6.80624       13.54759       11.58456
H          6.85341       13.55905        9.83030
