77
CSD_code = ODAFAC | q = 0 | S = 0 | Stoichiometry = C27H43N2O2Si2Y | MND = 6
Y         11.55414        1.90278        3.35479
Si         8.99607        0.12627        5.05970
Si        13.12904        3.93879        0.95252
N         13.38101        1.26811        4.85501
N         11.69290        3.65037        5.05643
O         13.03369       -0.46381        2.80573
O          9.63889        3.88992        3.29334
C          9.74896        0.39202        3.35311
H          8.96725        0.71666        2.65403
H         10.10485       -0.57395        2.97323
C         11.98118        2.45677        1.09690
H         12.44256        1.60789        0.57776
H         11.04620        2.65960        0.56004
C          8.58948        4.04361        2.35695
H          7.69825        3.48712        2.66374
H          8.96613        3.63699        1.41915
H          8.33762        5.09977        2.21714
C          9.42223        4.38215        4.56891
C         10.51064        4.26437        5.46075
C         12.97155        5.67330        5.69691
H         12.04295        6.20086        5.49328
H         13.76580        6.11357        5.09636
H         13.23042        5.81491        6.74513
C         12.85944        4.20017        5.36314
C         14.06884        3.50373        5.37055
H         14.94288        4.10206        5.59068
C         14.30177        2.12979        5.24372
C         15.71869        1.68684        5.53766
H         15.92320        1.74067        6.60602
H         16.41754        2.35063        5.03197
H         15.89240        0.66771        5.20088
C         10.32812        4.69222        6.77742
H         11.13984        4.55871        7.47682
C          9.13487        5.24915        7.19604
H          9.02237        5.56889        8.22092
C          8.09294        5.39594        6.30146
H          7.15994        5.83935        6.61298
C          8.23583        4.95609        4.99258
H          7.40302        5.06324        4.31643
C         13.55114       -0.09502        5.08094
C         13.32430       -1.02027        4.03967
C         13.40507       -2.37913        4.28734
H         13.23697       -3.09579        3.49945
C         13.70448       -2.84468        5.56062
H         13.76261       -3.90781        5.73603
C         13.92046       -1.95103        6.59133
H         14.14470       -2.30914        7.58471
C         13.84590       -0.59168        6.35138
H         13.98875        0.11263        7.15727
C         12.91186       -1.35255        1.71299
H         13.83242       -1.92720        1.56766
H         12.73329       -0.72944        0.83762
H         12.06818       -2.03797        1.84312
C         10.29726        0.38923        6.44174
H         11.06921       -0.37483        6.39993
H          9.84490        0.33892        7.42825
H         10.78204        1.36143        6.35242
C          7.55183        1.34332        5.38744
H          7.90790        2.36567        5.46120
H          7.04740        1.10765        6.31898
H          6.80917        1.30159        4.59667
C          8.29158       -1.64260        5.31735
H          7.50715       -1.86568        4.60103
H          7.87375       -1.76878        6.31115
H          9.07013       -2.38935        5.19375
C         14.75871        3.53649        1.87475
H         14.60659        3.55331        2.95117
H         15.54356        4.24918        1.63940
H         15.12410        2.54853        1.60758
C         12.33037        5.48574        1.75414
H         11.48860        5.84154        1.16799
H         13.03986        6.30383        1.83301
H         11.96773        5.26275        2.75382
C         13.60394        4.43732       -0.84134
H         14.12828        3.63089       -1.34448
H         14.24994        5.30971       -0.86107
H         12.72276        4.67014       -1.43112
