63
CSD_code = PAJCAE | q = 0 | S = 0 | Stoichiometry = C24H34ClPSi2Zr | MND = 13
Zr        -3.96699        0.27857       14.06280
Cl        -2.98625        0.87074       16.17905
P         -5.91940       -0.36115       16.12687
Si        -7.07367       -2.05006       17.09425
Si        -6.47507        1.55488       17.21235
C         -4.36681       -2.17200       13.48072
C         -3.81626       -2.26622       14.77696
C         -2.49288       -1.79942       14.72780
C         -2.20974       -1.41923       13.40352
C         -3.36907       -1.65096       12.62400
C         -3.82862        1.61252       11.79178
C         -2.51065        1.22099       12.07407
C         -2.11231        1.84159       13.27455
C         -3.17792        2.65640       13.71424
C         -4.24589        2.50581       12.80475
C         -6.15021        0.27708       13.55703
C         -6.89162       -0.07667       14.62019
C         -6.82622        0.60042       12.29375
C         -7.71258        1.67793       12.21897
C         -8.32534        2.00880       11.02532
C         -8.08087        1.26193        9.88494
C         -7.21677        0.17996        9.94765
C         -6.58882       -0.14376       11.13494
C         -7.36100       -3.36936       15.73710
C         -8.77753       -1.59971       17.84107
C         -5.94052       -2.71549       18.47866
C         -5.68445        2.89518       16.10614
C         -5.69230        1.48610       18.94763
C         -8.35218        1.93585       17.30554
H         -5.32484       -2.57303       13.17354
H         -4.28050       -2.73772       15.63186
H         -1.78562       -1.81763       15.54651
H         -1.22776       -1.15558       13.02845
H         -3.42820       -1.59515       11.54279
H         -4.37785        1.38772       10.88797
H         -1.87328        0.64758       11.41434
H         -1.12217        1.81082       13.71497
H         -3.12634        3.36707       14.52914
H         -5.15103        3.10086       12.77622
H         -7.97803       -0.20022       14.62178
H         -7.90701        2.25968       13.11120
H         -9.00193        2.85059       10.98442
H         -8.56161        1.51955        8.95302
H         -7.02876       -0.41085        9.06223
H         -5.91386       -0.99000       11.18015
H         -6.42968       -3.82442       15.41497
H         -8.01025       -4.16500       16.09000
H         -7.82715       -2.92709       14.86102
H         -8.66908       -0.95855       18.70975
H         -9.40860       -1.08647       17.12299
H         -9.30220       -2.49577       18.15811
H         -4.92185       -2.84606       18.12617
H         -5.90577       -2.02420       19.31469
H         -6.28864       -3.67188       18.85504
H         -5.70794        2.55962       15.06423
H         -6.19372        3.85246       16.16947
H         -4.64720        3.05074       16.38760
H         -6.17494        0.74426       19.57600
H         -4.64160        1.22635       18.86570
H         -5.76343        2.44482       19.44995
H         -8.85045        1.33579       18.05777
H         -8.51413        2.97859       17.55979
H         -8.84095        1.74999       16.35424
