71
CSD_code = PAPXOU | q = 0 | S = 0 | Stoichiometry = C14H43B10HfNSi2 | MND = 9
Hf         3.93466       14.15431        8.15502
Si         5.68508       15.50512        5.50242
Si         5.50582       10.72844        7.91978
N          5.11246       15.19048       10.53519
C          2.37556       14.26768       10.02839
C          2.11094       12.26378        8.18823
H          2.46715       11.24553        8.02855
C          2.82269       14.67241       11.43241
H          2.35759       14.02702       12.18453
H          2.51549       15.69575       11.66561
C          4.33978       14.53208       11.60443
H          4.63679       14.93347       12.58790
H          4.59682       13.46838       11.58857
C          4.95743       16.64654       10.63670
H          5.23446       17.00568       11.63766
H          3.93049       16.93607       10.43426
H          5.60424       17.13064        9.90799
C          6.53258       14.89383       10.74707
H          6.88379       15.29221       11.70907
H          7.12362       15.34429        9.95178
H          6.70479       13.82057       10.73983
C          5.31213       15.76682        7.32861
H          4.82557       16.73967        7.47243
H          6.26866       15.81597        7.86124
C          4.28112       16.05725        4.32532
H          3.96898       17.07660        4.52551
H          3.40744       15.42071        4.41640
H          4.60964       16.01824        3.29154
C          7.29089       16.35230        4.87631
H          8.14808       16.06326        5.47621
H          7.21162       17.43372        4.92141
H          7.50943       16.08467        3.84764
C          5.91890       13.61607        5.26520
H          6.79476       13.25054        5.79136
H          6.04494       13.35774        4.21855
H          5.05200       13.07317        5.64181
C          5.47096       12.51569        8.55061
H          6.45479       12.95067        8.31494
H          5.45910       12.40534        9.64521
C          4.70513        9.55571        9.21189
H          3.70566        9.86595        9.49668
H          5.30084        9.51572       10.11909
H          4.63318        8.54223        8.82915
C          7.31285       10.11245        7.71421
H          7.34900        9.08024        7.38118
H          7.86593       10.17368        8.64640
H          7.84651       10.70863        6.98044
C          4.69161       10.35236        6.22228
H          3.72218       10.81747        6.08266
H          4.54939        9.28043        6.11623
H          5.32920       10.66950        5.40387
B          2.34584       12.76414        9.69705
H          2.71020       11.98047       10.51334
B          2.15848       13.32829        6.89336
H          2.70527       12.92293        5.90304
B          1.97131       15.02578        7.26768
H          2.31219       15.90466        6.53385
B          1.97862       15.40170        9.02066
H          2.09202       16.51503        9.43860
B          0.64058       14.18062        9.71769
H          0.05281       14.43905       10.70724
B          0.63225       12.40606        9.07401
H          0.19998       11.47205        9.64794
B          0.64962       12.45878        7.32338
H          0.25735       11.53029        6.71196
B          0.53551       14.11588        6.77934
H         -0.02062       14.34560        5.76476
B          0.44260       15.20370        8.14286
H         -0.21440       16.18426        8.10642
B         -0.30113       13.62514        8.31668
H         -1.47426       13.56620        8.41488
