111
CSD_code = PESYIY | q = 0 | S = 0 | Stoichiometry = C35H66N4O2PSi2Y | MND = 6
C          2.95816       16.05561       10.99288
H          3.91862       16.35889       11.40142
H          2.44520       16.91864       10.56972
H          3.13076       15.34387       10.18587
C          2.12270       15.43083       12.05515
C          0.75181       15.16188       11.98550
H          0.08855       15.37846       11.17232
C          0.43427       14.55455       13.18384
C         -0.86798       14.05713       13.69536
H         -0.73103       13.10015       14.19532
H         -1.57160       13.94465       12.87500
H         -1.28393       14.75726       14.41994
C          2.47974       18.28017       17.22675
H          3.03730       18.58181       16.34339
H          3.15078       18.29595       18.08515
H          1.67144       18.98615       17.41541
C          1.92580       16.91169       17.03415
C          0.90009       16.30817       17.76550
H          0.36467       16.72092       18.59667
C          0.71411       15.06645       17.18726
C         -0.26413       14.00070       17.52138
H         -0.32513       13.29668       16.69560
H         -1.24307       14.43740       17.70914
H          0.04035       13.46312       18.41862
C          1.64552       13.89933       15.21061
C          3.33252       11.80761       13.97010
H          3.74770       12.48982       13.21295
C          4.37470       10.72428       14.23011
H          5.28008       11.17840       14.63677
H          3.99167       10.00638       14.95914
C          4.68910        9.98813       12.93069
H          5.42449        9.20201       13.11629
H          5.12115       10.69048       12.21555
C          3.41595        9.38249       12.34515
H          3.64195        8.87974       11.40239
H          3.02052        8.63283       13.03547
C          2.36191       10.46279       12.11698
H          1.44957       10.01386       11.71775
H          2.73259       11.17973       11.38076
C          2.05061       11.19728       13.42074
H          1.62901       10.49370       14.13962
H          1.31006       11.97559       13.23808
C          2.83905       12.04162       17.02367
H          2.42321       12.83704       17.65904
C          4.12628       11.55370       17.67838
H          4.56639       10.74855       17.08756
H          4.84637       12.37204       17.71988
C          3.82207       11.04081       19.08348
H          4.73796       10.67436       19.55153
H          3.44033       11.86285       19.69360
C          2.78320        9.92272       19.03155
H          3.19295        9.07557       18.47606
H          2.55490        9.57826       20.04258
C          1.50580       10.40323       18.34713
H          1.06010       11.20616       18.93859
H          0.78201        9.58667       18.29378
C          1.81598       10.91738       16.94235
H          0.90716       11.27543       16.45596
H          2.21784       10.09341       16.35027
C          6.20086       16.10956       13.03425
H          5.86399       16.78158       12.23429
H          7.06011       16.62148       13.48852
C          5.76652       17.02477       16.43511
H          6.74172       17.32062       16.02683
H          5.26770       17.96039       16.70924
C          8.39293       14.73077       11.15123
H          8.18313       15.39204       10.31598
H          8.73149       13.78403       10.74143
H          9.22059       15.16105       11.70613
C          7.35646       13.29295       13.65746
H          8.22582       13.65821       14.19552
H          7.60392       12.31060       13.26473
H          6.55218       13.17461       14.37848
C          5.54045       13.67024       11.15247
H          4.55761       13.68165       11.61374
H          5.80492       12.63687       10.94779
H          5.46298       14.17706       10.19560
C          7.20543       14.50867       17.53992
H          6.74130       13.90146       16.76875
H          7.39180       13.87307       18.40091
H          8.16821       14.84009       17.16343
C          6.97081       16.95460       19.39314
H          7.93056       17.33598       19.06021
H          7.15152       16.32450       20.25831
H          6.38144       17.80386       19.72510
C          4.47622       15.31194       18.76631
H          3.85068       16.10029       19.17359
H          4.69735       14.62168       19.57553
H          3.89314       14.77500       18.02417
C          1.87644       18.45503       13.63410
H          1.32965       17.83334       14.34296
H          1.55073       18.20690       12.61530
C          1.72327       19.96551       13.89424
H          1.08218       20.42264       13.14283
H          1.28768       20.15325       14.87311
C          3.16324       20.49836       13.81536
H          3.25450       21.36553       13.16582
H          3.52893       20.76685       14.80564
C          3.94467       19.29612       13.27580
H          3.92518       19.28740       12.17634
H          4.97737       19.24718       13.62325
N          2.60957       15.02079       13.22621
N          1.57137       14.47552       13.89965
N          2.35139       16.08474       16.07981
N          1.60610       14.96102       16.18352
O          4.47799       13.66060       15.59057
O          3.25975       18.15679       13.77675
P          3.15722       12.93335       15.43058
Si         6.84865       14.51502       12.27620
Si         6.08588       15.99726       17.97858
Y          4.55116       15.86619       14.74904
