87
CSD_code = PITHUY | q = 0 | S = 0 | Stoichiometry = C31H51N2ScSi2 | MND = 4
Sc         4.49210        6.83740        1.39971
N          3.32796        6.68479        3.24845
N          5.26810        4.89666        2.16697
Si         3.16193        7.79134       -1.86070
Si         6.54160        9.25585        3.06493
C          6.42691        3.52855        3.86331
H          5.93935        2.84041        4.55173
H          7.27640        3.97221        4.38240
H          6.79199        2.97034        3.00427
C          5.47780        4.62842        3.44196
C          4.85473        5.32478        4.48680
H          5.17739        5.06313        5.48463
C          3.78156        6.21218        4.40190
C          3.16809        6.62985        5.71904
H          2.49417        7.47434        5.59404
H          3.95913        6.90769        6.41301
H          2.61241        5.80410        6.16180
C          2.06698        7.28409        3.16322
C          1.92657        8.51491        2.51272
H          2.81728        9.02534        2.15396
C          0.67820        9.08426        2.35340
H          0.58806       10.04028        1.85906
C         -0.45413        8.44044        2.82702
H         -1.42799        8.88775        2.69886
C         -0.32718        7.21654        3.46301
H         -1.20523        6.70420        3.82893
C          0.91696        6.64230        3.63474
H          1.01144        5.67809        4.11367
C          5.64289        3.95039        1.18138
C          6.76213        4.16671        0.36534
C          7.04636        3.25648       -0.64390
H          7.91120        3.40821       -1.27164
C          6.24190        2.15509       -0.85415
H          6.46954        1.46007       -1.64850
C          5.14740        1.93692       -0.03658
H          4.53205        1.06851       -0.20864
C          4.84009        2.80639        0.99715
C          7.67290        5.35428        0.58538
H          7.23599        5.99522        1.36876
C          7.79625        6.19127       -0.68990
H          8.28363        5.62825       -1.48209
H          8.38855        7.08313       -0.49598
H          6.80637        6.49411       -1.03430
C          9.05100        4.89176        1.06648
H          8.96264        4.32150        1.98842
H          9.69092        5.75146        1.25304
H          9.52968        4.26241        0.31973
C          3.64147        2.56650        1.89201
H          3.87559        2.94903        2.89069
C          3.28315        1.08789        2.04093
H          2.84280        0.69332        1.12861
H          2.55401        0.96802        2.83979
H          4.16381        0.49946        2.28920
C          2.43919        3.35580        1.36295
H          2.65111        4.42976        1.39517
H          1.55999        3.15781        1.97321
H          2.22120        3.07026        0.33551
C          3.32742        6.49185       -0.50182
H          3.71443        5.56784       -0.97095
H          2.29458        6.24870       -0.18481
C          2.35227        9.37044       -1.13778
H          1.40391        9.13878       -0.66273
H          2.16165       10.11039       -1.90861
H          2.99206        9.83120       -0.39002
C          4.88051        8.26967       -2.56128
H          5.53294        8.64473       -1.77745
H          4.79611        9.04368       -3.31754
H          5.36986        7.41760       -3.02323
C          2.08745        7.24926       -3.35728
H          2.49956        6.36618       -3.83663
H          2.02107        8.02852       -4.11080
H          1.07509        7.00855       -3.04632
C          5.80004        8.69989        1.42031
H          6.63532        8.57947        0.71135
H          5.22064        9.54841        1.01748
C          7.79525       10.70577        2.95197
H          8.63932       10.44712        2.31952
H          8.18915       10.97679        3.92704
H          7.33260       11.59231        2.52897
C          7.47248        7.78533        3.87505
H          6.81536        6.92323        3.97939
H          7.83833        8.04237        4.86445
H          8.33091        7.48356        3.28179
C          5.15896        9.81561        4.26926
H          4.63640       10.68913        3.89148
H          5.56092       10.07468        5.24385
H          4.42406        9.02927        4.41421
