80
CSD_code = POSFOT | q = 0 | S = 0 | Stoichiometry = C30H39N2O5PSi2W | MND = 6
C         10.61332       -1.40926        4.12906
C         11.24718       -3.31492        5.02430
C          9.81824       -0.22162        3.92573
C         10.24572        0.75520        3.02546
H         11.16736        0.59687        2.47882
C          9.49612        1.89702        2.82920
H          9.83346        2.65210        2.13524
C          8.31345        2.07724        3.53116
H          7.73146        2.97444        3.38224
C          7.87818        1.10939        4.42382
H          6.95701        1.25411        4.96839
C          8.62200       -0.03684        4.62238
H          8.30497       -0.80036        5.31534
C         11.02120       -4.46759        5.94408
C         11.01615       -3.89916        7.37448
H         11.97697       -3.41780        7.57600
H         10.23514       -3.14077        7.45829
C         10.77372       -5.02976        8.37041
H         10.77399       -4.61696        9.38550
C          9.42186       -5.68126        8.08374
H          9.23480       -6.48168        8.80333
H          8.62387       -4.94280        8.18800
C          9.42442       -6.24753        6.66474
H          8.45510       -6.71455        6.45553
C         10.53267       -7.29175        6.53371
H         10.53052       -7.71253        5.52535
H         10.35783       -8.10877        7.23753
C         11.88363       -6.63768        6.82212
H         12.67931       -7.38527        6.72725
C         12.13068       -5.51101        5.82099
H         13.09720       -5.03962        6.00760
H         12.14618       -5.90860        4.80351
C          9.66307       -5.12006        5.66237
H          9.65338       -5.51683        4.64430
H          8.87817       -4.36581        5.73850
C         11.88448       -6.07060        8.24100
H         11.72686       -6.87471        8.96359
H         12.85122       -5.61029        8.45620
C         12.72084       -1.96999        1.92029
H         13.00087       -0.99803        1.50318
C          9.90529       -1.28357        0.56324
H         10.36337       -0.36074        0.22029
H          9.28460       -1.04663        1.42096
H          9.24530       -1.62633       -0.22821
C         10.32620       -4.06749        1.84975
H          9.67956       -3.68860        2.63590
H         11.03326       -4.74883        2.30921
H          9.70682       -4.63973        1.16545
C         11.81055       -3.20973       -0.77683
H         12.56383       -3.98682       -0.72920
H         12.22848       -2.37968       -1.33716
H         10.97600       -3.59662       -1.35229
C         15.46099       -2.87498        3.39821
H         14.91123       -3.06606        4.31345
H         15.90116       -1.88596        3.46617
H         16.27823       -3.58930        3.34870
C         13.86027       -4.93499        1.86569
H         13.17744       -5.20093        1.06724
H         13.40605       -5.22176        2.80866
H         14.75903       -5.53100        1.74148
C         15.27720       -2.55991        0.33534
H         16.14715       -3.19401        0.20751
H         15.63083       -1.53627        0.41121
H         14.68051       -2.63655       -0.56587
C         14.31554        1.25606        6.47984
C         12.64424        1.65377        4.42519
C         11.88598       -0.20259        6.44075
C         14.24860       -1.53996        6.20017
C         14.93625        0.34904        3.92176
N         10.25097       -2.37743        4.91656
N         12.37291       -3.13107        4.40086
O         14.80205        1.98708        7.21364
O         12.30025        2.70004        4.11388
O         11.00399       -0.27878        7.16319
O         14.61392       -2.36349        6.90182
O         15.70771        0.69405        3.14920
P         12.37453       -1.63661        3.67613
Si        11.19799       -2.64065        0.93981
Si        14.31283       -3.08264        1.89705
W         13.44830        0.00655        5.21127
