67
CSD_code = QAQBOZ | q = 0 | S = 0 | Stoichiometry = C24H38Cl2Si2Zr | MND = 12
Zr         4.52135        1.72608        4.39579
Cl         3.91564        3.41689        2.88129
Si         1.45366        0.98309        2.32339
C          2.27671        0.95053        4.01653
C          2.99431       -0.17208        4.52500
C          3.31875        0.06615        5.87846
C          2.78066        1.32764        6.23948
C          2.68341        1.94592        7.60857
C          1.51539        2.93543        7.63164
C          1.62544        3.89722        6.44936
C          1.36717        3.15578        5.13475
C          2.15648        1.87673        5.09819
C          0.09671       -0.36754        2.33478
C          2.77816        0.49382        1.03038
C          0.64582        2.63169        1.81153
H          3.13668       -1.10875        3.99868
H          3.74466       -0.65492        6.56460
H          3.60025        2.48958        7.86456
H          2.53819        1.16409        8.36046
H          0.57035        2.39037        7.56723
H          1.52432        3.49032        8.57109
H          2.62886        4.33085        6.43168
H          0.90678        4.71182        6.55689
H          1.62333        3.79934        4.28803
H          0.29986        2.91617        5.05625
H          0.49816       -1.34061        2.59844
H         -0.36320       -0.45562        1.35657
H         -0.68828       -0.13577        3.04702
H          3.08340       -0.54326        1.14013
H          3.65883        1.12490        1.12306
H          2.39584        0.60834        0.02127
H          0.22535        2.53990        0.81469
H          1.36784        3.44045        1.79106
H         -0.16085        2.91373        2.47974
Cl         5.12633        3.41855        5.90986
C          6.76593        0.95020        4.77532
Si         7.58872        0.98300        6.46858
C          8.94695       -0.36635        6.45658
H          8.54639       -1.33968        6.19255
H          9.40679       -0.45442        7.43481
H          9.73188       -0.13367        5.74453
C          6.26454        0.49211        7.76124
H          5.95979       -0.54504        7.65071
H          5.38364        1.12293        7.66889
H          6.64686        0.60619        8.77043
C          8.39546        2.63194        6.98120
H          8.81554        2.54006        7.97819
H          7.67291        3.44018        7.00170
H          9.20222        2.91485        6.31347
C          6.04804       -0.17225        4.26693
C          5.72383        0.06594        2.91339
H          5.90538       -1.10882        4.79335
C          6.26213        1.32736        2.55233
C          6.88638        1.87633        3.69364
C          6.35970        1.94555        1.18321
C          7.52810        2.93461        1.16000
C          7.41798        3.89636        2.34230
C          7.67584        3.15527        3.65718
H          7.41965        3.79898        4.50381
H          8.74309        2.91542        3.73572
H          6.41473        4.33031        2.35976
H          8.13671        4.71084        2.23472
H          8.47299        2.38931        1.22483
H          7.51954        3.48940        0.22046
H          5.44304        2.48944        0.92702
H          6.50488        1.16359        0.43145
H          5.29782       -0.65510        2.22726
