64
CSD_code = QOPBIG | q = 0 | S = 0 | Stoichiometry = C19H38N4Si2Ti | MND = 4
Ti         2.66648        1.55006        3.66050
N          2.88239        0.86821        5.18603
N          1.12341        2.55960        3.22128
N          4.08925        2.52008        2.83301
N          2.33755        0.05228        2.36412
Si        -0.21255        2.57276        4.28071
Si         5.66144        1.87472        2.98809
C          3.07780        0.30668        6.46823
C          3.40341        1.39444        7.51596
C          4.25404       -0.69901        6.43174
C          1.80293       -0.44001        6.92585
C          2.48799       -1.26178        2.54641
C          2.83624       -2.11968        1.52219
C          3.06562       -1.57280        0.26240
C          2.91362       -0.20926        0.07905
C          2.53230        0.60143        1.15194
C          2.29561        2.08246        1.03783
C          0.98894        2.45896        1.80322
C          3.51302        2.92135        1.59098
C          2.10000        2.50462       -0.42708
C         -0.82034        0.75846        4.53421
C          0.53257        3.34118        5.86407
C         -1.70467        3.60818        3.65880
C          6.22848        2.42198        4.72880
C          5.68737       -0.05371        2.87731
C          6.87594        2.51604        1.64787
H          3.60073        0.94239        8.48612
H          4.28026        1.95660        7.20126
H          2.56542        2.08040        7.60736
H          4.41447       -1.14063        7.41322
H          5.15870       -0.18420        6.11691
H          4.03929       -1.49423        5.71832
H          1.94602       -0.87862        7.91132
H          0.97112        0.25880        6.95889
H          1.56334       -1.23220        6.21735
H          2.29527       -1.61670        3.55690
H          2.93798       -3.17865        1.69719
H          3.35639       -2.20251       -0.56503
H          3.08977        0.21310       -0.89626
H          0.65554        3.43024        1.39551
H          0.21298        1.72016        1.50531
H          3.12749        3.95261        1.68098
H          4.27142        2.92951        0.79118
H          1.87747        3.56879       -0.47150
H          2.99704        2.33618       -1.01950
H          1.26848        1.96439       -0.87797
H         -1.36881        0.61431        5.45933
H          0.06229        0.11351        4.54984
H         -1.46632        0.43301        3.72164
H          0.16814        2.85660        6.76303
H          0.30892        4.39989        5.95064
H          1.62008        3.21314        5.80572
H         -2.50601        3.62949        4.38932
H         -1.41298        4.63465        3.46042
H         -2.11009        3.19791        2.73885
H          6.75077        3.37290        4.70878
H          5.33856        2.53265        5.34875
H          6.88676        1.69476        5.19117
H          6.64764       -0.47411        3.16033
H          4.93032       -0.44446        3.55999
H          5.46111       -0.41228        1.87334
H          7.89917        2.24959        1.88782
H          6.82822        3.59717        1.56741
H          6.65319        2.10009        0.66940
