94
CSD_code = QUMXUR | q = 0 | S = 0 | Stoichiometry = C31H55N4NbOSi2 | MND = 5
Nb         8.41890        3.75649       17.82833
N          9.79889        4.08168       18.89550
N          9.26216        3.31853       16.05314
N          7.88185        5.64493       17.13559
N          6.15562        3.66245       17.09685
O          7.78321        2.05880       18.56839
Si        10.89178        3.51904       15.50040
Si         7.21276        6.93185       18.04444
C         10.76832        4.33419       19.89556
C         11.18591        2.99683       20.54126
C         12.00387        5.03293       19.30002
C         10.14785        5.25258       20.96829
C          5.13297        3.47903       17.92034
C          3.82009        3.69887       17.54958
C          3.57247        4.12990       16.25368
C          4.64046        4.33510       15.39960
C          5.93607        4.09144       15.85227
C          7.17822        4.36910       15.06214
C          8.16076        3.14816       15.15220
C          7.80507        5.65526       15.70359
C          6.90121        4.66262       13.58558
C         11.07510        3.03872       13.65280
C         11.98012        2.35031       16.55339
C         11.46110        5.34146       15.70756
C          8.48536        8.33816       18.34192
C          6.66051        6.20465       19.72954
C          5.66964        7.72370       17.21957
C          8.18986        1.09553       19.38402
C          8.90525       -0.00634       18.86473
C          9.28444       -1.03062       19.71387
C          8.97778       -0.99283       21.06273
C          8.27776        0.08236       21.57438
C          7.88262        1.13191       20.76047
C          9.17549       -0.03012       17.37675
C          7.89587       -0.45149       16.64197
C         10.33072       -0.94265       16.97373
C          7.08072        2.29151       21.30837
C          7.57347        2.77163       22.67382
C          5.60259        1.89309       21.39949
H         11.81233        3.16876       21.41319
H         10.29504        2.44375       20.83331
H         11.73562        2.39470       19.82279
H         12.75847        5.18326       20.06845
H         11.71301        5.99652       18.89082
H         12.41663        4.42637       18.50075
H         10.88012        5.49364       21.73521
H          9.29916        4.75371       21.42868
H          9.80128        6.17011       20.49781
H          5.38561        3.12853       18.91349
H          3.01651        3.53378       18.24985
H          2.56196        4.30726       15.91535
H          4.46395        4.67434       14.39239
H          8.53255        2.95390       14.14020
H          7.57382        2.25923       15.44399
H          8.81333        5.75365       15.27119
H          7.20621        6.50463       15.34759
H          7.84062        4.87240       13.07729
H          6.26018        5.53389       13.46367
H          6.43136        3.80707       13.10181
H         12.12067        3.07028       13.36782
H         10.71541        2.03347       13.45653
H         10.54210        3.71978       12.99632
H         12.99448        2.72435       16.64302
H         11.54821        2.27242       17.54901
H         12.04044        1.35355       16.12883
H         12.52781        5.40843       15.89421
H         10.94012        5.77510       16.55949
H         11.25045        5.94840       14.83065
H          8.10865        9.07327       19.04566
H          9.41476        7.93983       18.73809
H          8.72109        8.85850       17.41837
H          6.69520        6.95465       20.51275
H          7.33073        5.39087       20.01449
H          5.64368        5.82019       19.69255
H          5.16198        8.39033       17.90838
H          4.95102        6.97383       16.89766
H          5.94638        8.31064       16.34932
H          9.82438       -1.87940       19.32434
H          9.27827       -1.80310       21.71033
H          8.03277        0.10247       22.62562
H          9.42846        0.99910       17.07596
H          8.04696       -0.42936       15.56336
H          7.61105       -1.46228       16.93192
H          7.07513        0.21796       16.89704
H         10.56663       -0.79257       15.92183
H         11.21694       -0.72070       17.56263
H         10.06925       -1.99008       17.11092
H          7.19049        3.12600       20.59429
H          7.10669        3.72269       22.92462
H          7.31782        2.05769       23.45340
H          8.65253        2.90282       22.66822
H          4.98718        2.74697       21.68014
H          5.47485        1.11438       22.14934
H          5.24921        1.49683       20.44899
