110
CSD_code = QUMYAY | q = 0 | S = 0 | Stoichiometry = C39H63N4OSi2Ta | MND = 5
Ta         2.39323        1.93120        3.78069
N          4.07185        2.55305        4.06113
N          2.72338       -0.01059        3.23723
N          1.75775        1.47642        5.70395
N         -0.10779        1.30020        3.61593
O          1.60575        3.28722        2.67370
Si         3.95781       -0.72615        2.24108
Si         1.20271        2.61727        6.86224
C          5.32102        2.95450        4.33675
C          5.99333        2.48310        5.49704
C          7.30470        2.85308        5.72651
C          7.97211        3.70964        4.86726
C          7.31086        4.21706        3.76357
C          6.00652        3.85597        3.48071
C          5.25728        1.56097        6.44095
C          5.27549        4.45532        2.30324
C          5.49596        0.10655        6.02396
C          5.64176        1.76776        7.90661
C          6.08097        4.39469        1.00596
C          4.89792        5.90356        2.62455
C         -1.06084        2.13630        3.23052
C         -2.39085        1.98022        3.57096
C         -2.72955        0.90302        4.37534
C         -1.73581        0.03193        4.78432
C         -0.42170        0.25005        4.37491
C          0.73670       -0.63464        4.73929
C          1.59550       -0.88927        3.46235
C          1.55423        0.06420        5.87111
C          0.28199       -1.99969        5.27029
C          5.36660        0.51031        1.93785
C          4.63756       -2.32430        3.06856
C          3.24662       -1.28388        0.54169
C          2.38096        4.11887        6.78311
C         -0.60597        3.21211        6.56201
C          1.22986        1.87636        8.62814
C          1.66059        4.31802        1.83204
C          1.27553        5.60337        2.25803
C          1.32988        6.65558        1.35790
C          1.75455        6.46139        0.05779
C          2.10476        5.19194       -0.36814
C          2.06092        4.11054        0.49442
C          0.74501        5.80022        3.66020
C          2.35072        2.69683        0.03902
C         -0.76416        6.06511        3.61360
C          1.45047        6.93490        4.40141
C          1.01935        2.00287       -0.28011
C          3.28973        2.61200       -1.16201
H          7.82423        2.47550        6.59433
H          8.99671        3.98908        5.06495
H          7.82732        4.90788        3.11339
H          4.18890        1.77162        6.33119
H          4.34843        3.88571        2.16952
H          5.00933       -0.57304        6.72217
H          6.56169       -0.11651        6.01085
H          5.08818       -0.05182        5.02832
H          4.94209        1.23700        8.54920
H          6.63917        1.38666        8.11353
H          5.61346        2.82340        8.16483
H          5.47605        4.77005        0.18260
H          6.97544        5.00941        1.06964
H          6.38164        3.37254        0.78901
H          4.28392        6.32325        1.83057
H          5.79022        6.51503        2.74269
H          4.33365        5.93442        3.55284
H         -0.73206        2.96385        2.61608
H         -3.13391        2.68084        3.22471
H         -3.75368        0.74269        4.67926
H         -1.98798       -0.80833        5.40899
H          1.96890       -1.91652        3.53429
H          0.91393       -0.86831        2.59378
H          2.53062       -0.44228        5.91003
H          1.03604       -0.13474        6.81468
H          1.15474       -2.60066        5.51649
H         -0.31233       -1.89985        6.17575
H         -0.30195       -2.53094        4.52031
H          6.07268        0.10109        1.22303
H          5.90677        0.73499        2.84943
H          4.99630        1.45119        1.54755
H          5.66733       -2.49226        2.77138
H          4.61726       -2.26857        4.15238
H          4.07124       -3.20174        2.76967
H          4.01298       -1.77213       -0.05178
H          2.43165       -1.99205        0.66370
H          2.87004       -0.44630       -0.03650
H          1.86268        5.03827        7.03424
H          3.20390        4.00917        7.48115
H          2.81166        4.22802        5.78970
H         -0.89432        3.95923        7.29503
H         -1.31775        2.39335        6.63722
H         -0.72388        3.65776        5.57836
H          1.11160        2.66158        9.36653
H          2.16588        1.36806        8.83342
H          0.42348        1.16589        8.78194
H          1.03138        7.64343        1.67580
H          1.79802        7.29334       -0.62946
H          2.40997        5.04859       -1.39291
H          0.92237        4.87168        4.21871
H          2.82290        2.16138        0.87777
H         -1.16732        6.14086        4.62188
H         -0.96967        6.99603        3.08923
H         -1.28409        5.26326        3.09265
H          1.06749        7.00754        5.41739
H          1.28546        7.88897        3.90686
H          2.52025        6.75201        4.44938
H          1.18915        0.99276       -0.64841
H          0.47797        2.56142       -1.04264
H          0.39782        1.94338        0.61115
H          3.59222        1.57883       -1.32020
H          4.18407        3.20478       -0.99285
H          2.80026        2.96131       -2.06866
