63
CSD_code = QUTPEA | q = 0 | S = 0 | Stoichiometry = C24H34Cl2Si2Zr | MND = 12
Zr         4.47917        4.62311        4.41222
Cl         3.21510        4.62396        6.38811
Cl         6.52368        4.62478        5.57463
C          5.43475        2.73308        3.08694
C          4.21192        3.14984        2.51027
C          3.15038        2.87697        3.42671
C          3.74791        2.24805        4.55487
C          5.13750        2.14907        4.35559
C          6.09181        1.39196        5.22597
C          6.71405        0.19541        4.43877
C          7.71372        0.66212        3.46008
C          7.29796        1.29545        2.19416
C          6.77999        2.75121        2.42753
Si         1.35454        3.42915        3.29400
C          0.62125        2.70031        1.68024
C          0.41687        2.70017        4.78913
H          4.08243        3.45203        1.47700
H          3.20731        1.83187        5.39681
H          6.90898        2.02835        5.57664
H          5.55569        1.00725        6.09753
H          6.71089        3.25993        1.46111
H          7.51066        3.27757        3.05242
H          6.48840        0.72993        1.72492
H          8.14124        1.34450        1.50219
H          8.70996        0.86539        3.81881
H          7.18143       -0.47362        5.16377
H          5.89948       -0.33636        3.94052
H         -0.41717        2.99265        1.57041
H          1.15275        3.04958        0.80110
H          0.65990        1.61561        1.67739
H         -0.63127        2.97968        4.76584
H          0.46549        1.61520        4.80690
H          0.83768        3.07212        5.71890
C          5.43471        6.51325        3.08698
C          4.21181        6.09656        2.51041
C          3.15037        6.36942        3.42698
H          4.08220        5.79445        1.47713
C          3.74803        6.99821        4.55514
C          5.13760        7.09720        4.35570
C          6.77989        6.49514        2.42742
C          7.29782        7.95089        2.19388
C          7.71364        8.58435        3.45970
C          6.71403        9.05102        4.43846
C          6.09199        7.85446        5.22586
H          3.20751        7.41448        5.39709
H          6.90921        7.21808        5.57646
H          5.55598        8.23923        6.09746
H          7.18139        9.72021        5.16331
H          5.89934        9.58265        3.94024
H          8.70994        8.38121        3.81836
H          6.48822        8.51634        1.72462
H          8.14106        7.90179        1.50186
H          6.71072        5.98631        1.46106
H          7.51064        5.96887        3.05229
Si         1.35449        5.81735        3.29430
C          0.62100        6.54656        1.68080
H         -0.41743        6.25423        1.57105
H          1.15239        6.19748        0.80152
H          0.65965        7.63126        1.67818
C          0.41702        6.54605        4.78970
H         -0.63112        6.26653        4.76648
H          0.46561        7.63102        4.80763
H          0.83795        6.17396        5.71935
