170
CSD_code = RANDUF | q = 0 | S = 0 | Stoichiometry = C66H94N7Si2Y | MND = 5
Y         -0.18311        3.61903        3.94389
Si        -2.97055        4.86724        5.51119
Si        -3.47851        3.26241        3.05168
N          0.90904        3.87848        5.96184
N          1.44058        5.42749        3.67269
N         -0.40214        1.97418        8.75216
N          0.32981        3.12552        1.74747
N          0.87508        1.41472        3.91603
N         -0.94933        5.41321       -0.75526
N         -2.35256        3.93720        4.18461
C          1.87993        4.84856        5.93204
C          2.45643        4.99304        7.21149
C          1.80694        4.10234        8.03864
C          0.85384        3.43361        7.23947
C          2.14148        5.58075        4.75584
C         -0.11890        2.43958        7.60856
C          1.83411        6.20422        2.55437
C          3.03976        5.92250        1.89909
C          3.45330        6.77141        0.88221
C          2.68780        7.85731        0.50702
C          1.46860        8.08815        1.11656
C          1.02119        7.27018        2.14268
C          3.86973        4.70806        2.25284
C          5.21042        5.11066        2.87187
C          4.09446        3.83292        1.01718
C         -0.27737        7.55738        2.86412
C         -1.35229        8.15446        1.95396
C         -0.00448        8.50097        4.04126
C          0.13335        2.35342        9.97200
C         -0.40547        3.44766       10.66981
C          0.04608        3.71094       11.95344
C          1.01258        2.92600       12.55182
C          1.53768        1.85195       11.85947
C          1.10840        1.54709       10.57801
C         -1.46864        4.32767       10.05415
C         -2.78253        4.19696       10.82792
C         -1.01284        5.78756       10.00050
C          1.70402        0.37314        9.83654
C          1.44599       -0.93150       10.59256
C          3.20205        0.58670        9.61086
C          0.96683        1.91862        1.59829
C          1.18959        1.65708        0.22999
C          0.65914        2.72197       -0.46568
C          0.13092        3.60853        0.49829
C          1.25502        1.10454        2.71286
C         -0.57286        4.85028        0.31527
C          1.26180        0.52253        4.94706
C          2.60972        0.42482        5.31605
C          2.97215       -0.53875        6.24661
C          2.02752       -1.37025        6.81416
C          0.69159       -1.22160        6.49102
C          0.28657       -0.27760        5.55990
C          3.65668        1.36048        4.75281
C          4.37755        2.10001        5.88276
C          4.66413        0.60904        3.87928
C         -1.16397       -0.15791        5.14657
C         -2.14092       -0.44964        6.28716
C         -1.43444       -1.10357        3.97052
C         -0.82096        4.93521       -2.04884
C         -1.78618        4.06127       -2.57749
C         -1.71720        3.72042       -3.91910
C         -0.72086        4.21603       -4.73766
C          0.22460        5.07457       -4.21077
C          0.18742        5.44951       -2.87757
C         -2.89631        3.50157       -1.71835
C         -2.87707        1.97139       -1.71992
C         -4.25306        4.02837       -2.19153
C          1.23786        6.38212       -2.32126
C          2.62439        5.74201       -2.41353
C          1.20802        7.72733       -3.04911
C         -1.54574        5.89671        6.27753
C         -3.70971        3.78435        6.90771
C         -4.32093        6.12970        5.01918
C         -4.99242        2.41833        3.86106
C         -2.60279        1.89663        2.02955
C         -4.16340        4.55363        1.81356
H          3.24233        5.67526        7.47488
H          1.98155        3.93782        9.08405
H          2.94883        6.31762        4.78937
H         -0.70303        2.05456        6.77033
H          4.39399        6.58631        0.38688
H          3.03676        8.52321       -0.26773
H          0.86828        8.92413        0.79682
H          3.31787        4.10626        2.98557
H          5.79582        4.22374        3.10548
H          5.78257        5.72635        2.18203
H          5.06177        5.67461        3.79015
H          3.14472        3.59642        0.54372
H          4.72773        4.33389        0.28972
H          4.57635        2.90061        1.30440
H         -0.66696        6.60655        3.26815
H         -1.14257        9.19844        1.73285
H         -1.42212        7.60821        1.01628
H         -2.31713        8.10758        2.45412
H          0.70560        8.06003        4.73855
H          0.41013        9.44007        3.67932
H         -0.92763        8.71074        4.57631
H         -0.36437        4.54882       12.49699
H          1.35372        3.14955       13.55184
H          2.29477        1.23977       12.32655
H         -1.65101        3.99429        9.02908
H         -2.66135        4.52444       11.85773
H         -3.55560        4.80517       10.36260
H         -3.11245        3.16068       10.83297
H         -0.87306        6.19142       11.00015
H         -0.07096        5.87148        9.46130
H         -1.75865        6.39207        9.48874
H          1.21910        0.29863        8.85808
H          0.37904       -1.06436       10.75556
H          1.81718       -1.77828       10.01947
H          1.94359       -0.92843       11.55915
H          3.72627        0.69180       10.55776
H          3.62517       -0.25953        9.07562
H          3.36994        1.48578        9.02163
H          1.67276        0.78803       -0.17466
H          0.64482        2.86336       -1.52882
H          1.79296        0.17027        2.52928
H         -0.82850        5.35964        1.24653
H          4.01040       -0.64736        6.52009
H          2.32983       -2.13245        7.51635
H         -0.03936       -1.85942        6.96045
H          3.15747        2.11510        4.13250
H          4.97808        1.41819        6.47916
H          5.03536        2.86148        5.46883
H          3.65717        2.58694        6.53550
H          5.17265       -0.16090        4.45451
H          4.16931        0.13367        3.03512
H          5.41237        1.29861        3.49389
H         -1.34293        0.87659        4.80476
H         -1.84571        0.06320        7.19949
H         -3.13611       -0.11144        6.00700
H         -2.19732       -1.51639        6.49122
H         -2.47163       -1.02241        3.65410
H         -0.79541       -0.86449        3.12238
H         -1.23932       -2.13286        4.26601
H         -2.45642        3.05120       -4.33342
H         -0.68220        3.93549       -5.77986
H          1.00472        5.46016       -4.85017
H         -2.74856        3.83862       -0.68891
H         -3.63434        1.58879       -1.03895
H         -3.08027        1.57779       -2.71274
H         -1.90472        1.60376       -1.39695
H         -4.26648        5.11517       -2.15365
H         -4.45576        3.71721       -3.21354
H         -5.04795        3.64886       -1.55264
H          1.01573        6.56400       -1.26500
H          2.65106        4.81675       -1.84181
H          2.88004        5.51701       -3.44625
H          3.37652        6.41639       -2.01215
H          1.91841        8.41577       -2.59671
H          1.46662        7.61018       -4.09855
H          0.21416        8.16430       -2.98665
H         -1.07826        5.36929        7.10119
H         -0.77007        6.14335        5.55483
H         -1.92545        6.83314        6.67399
H         -3.90959        4.38015        7.79254
H         -4.64729        3.33613        6.59996
H         -3.04220        2.97884        7.19845
H         -4.58984        6.76143        5.85991
H         -3.99518        6.77616        4.21094
H         -5.22100        5.62256        4.69160
H         -5.61814        3.14799        4.36171
H         -5.60488        1.91885        3.11700
H         -4.69736        1.67788        4.59724
H         -3.30869        1.12050        1.75097
H         -2.19097        2.29644        1.10995
H         -1.79427        1.41578        2.57708
H         -4.85050        5.23590        2.30047
H         -3.37449        5.14932        1.36439
H         -4.70504        4.06651        1.00908
