65
CSD_code = REDKOD | q = 0 | S = 0 | Stoichiometry = C28H30O4Si2Ti | MND = 8
Ti         2.45943        2.08173        6.91700
Si         5.64320        3.08480        5.43440
Si        -0.19698        3.38228        5.07186
O          6.23193        2.59220        6.88982
O         -0.56385        3.39793        6.68664
O          3.86897        1.54271        7.77249
O          1.91717        3.40418        7.83789
C          3.85469        2.60119        5.10825
C          2.73669        3.47362        5.11929
H          2.78824        4.55454        5.20092
C          1.55528        2.73067        4.89020
C          1.95346        1.37264        4.74177
H          1.29950        0.56366        4.43574
C          3.34983        1.29792        4.86980
H          3.95689        0.41297        4.71584
C          6.84377        2.23032        4.23732
H          7.86274        2.55281        4.41940
H          6.59576        2.47454        3.21083
H          6.81791        1.15068        4.33949
C          5.74480        4.99492        5.36406
H          5.15053        5.45022        6.15449
H          5.39922        5.39092        4.41507
H          6.77032        5.32495        5.50054
C         -1.49508        2.17632        4.38356
H         -1.48672        1.22743        4.91072
H         -1.30892        1.97721        3.33455
H         -2.49442        2.58923        4.46821
C         -0.35292        5.14510        4.35362
H          0.25835        5.85175        4.90958
H         -1.38025        5.49213        4.40963
H         -0.04813        5.18812        3.31376
C          1.16343        0.54600        7.46578
H          0.15613        0.74907        7.08101
H          1.52935       -0.42146        7.08732
C          1.18092        0.57700        8.93573
C          2.08908       -0.20086        9.66673
H          2.77542       -0.84944        9.13328
C          2.12943       -0.14153       11.04653
H          2.83986       -0.74854       11.58973
C          1.26483        0.69369       11.73807
H          1.30138        0.74296       12.81621
C          0.34877        1.45952       11.03301
H         -0.33533        2.10658       11.56399
C          0.29715        1.39397        9.65394
H         -0.43787        1.98025        9.11535
C         -0.25559        4.31888        7.64437
C         -1.19090        5.25039        8.05673
H         -2.16154        5.25057        7.58455
C         -0.88221        6.15745        9.05840
H         -1.62112        6.87811        9.37283
C          0.36920        6.13714        9.64918
H          0.61091        6.84223       10.42993
C          1.31705        5.21532        9.24453
H          2.30041        5.17809        9.69377
C          1.02475        4.29395        8.23726
C          5.78213        2.88325        8.14164
C          6.51939        3.70847        8.97343
H          7.44980        4.11265        8.60452
C          6.06374        4.00537       10.24710
H          6.64818        4.64588       10.88968
C          4.85728        3.48628       10.68583
H          4.49379        3.72247       11.67501
C          4.10827        2.66186        9.86525
H          3.16480        2.24712       10.19772
C          4.55865        2.33916        8.58226
