61
CSD_code = REGGEP | q = 0 | S = 0 | Stoichiometry = C22H29CrO6PSi2 | MND = 6
Cr         4.25949        2.16229        9.65352
P          3.53102        3.19916       11.71441
Si         2.25451        4.99664       14.01157
Si         4.38248        6.09913       11.70028
O          7.22269        2.11117       10.18990
O          4.25789        4.49800        7.76180
O          1.50914        1.68216        8.53952
O          4.21979       -0.61782       10.80245
O          5.01026        0.69335        7.15797
O          3.37961        1.73116       14.04277
C          6.08773        2.22425       10.05819
C          4.27711        3.70446        8.59281
C          2.50720        1.91857        9.05830
C          4.21019        0.48213       10.47359
C          4.73491        1.26512        8.11821
C          2.81660        1.91869       12.81779
C          1.76557        1.20976       12.36640
H          1.41193        1.48575       11.37775
C          1.03829        0.12893       12.99929
C          1.24566       -0.26316       14.32405
H          1.96670        0.26466       14.92590
C          0.53404       -1.31771       14.86263
H          0.70609       -1.60993       15.88862
C         -0.39894       -2.00008       14.09889
H         -0.95289       -2.82337       14.52514
C         -0.61889       -1.61848       12.78494
H         -1.34536       -2.14532       12.18349
C          0.08873       -0.56507       12.24222
H         -0.08377       -0.27300       11.21590
C          4.78479        1.90644       14.11757
H          5.03742        2.97169       14.00939
H          5.27004        1.34843       13.30205
C          5.25258        1.38299       15.46554
H          4.75078        1.91854       16.26714
H          6.32553        1.51971       15.56249
H          5.01842        0.32566       15.55591
C          3.39829        4.67288       12.51012
C          1.33876        6.62820       13.62769
H          2.01099        7.45180       13.42316
H          0.71502        6.91489       14.46827
H          0.68953        6.51362       12.76553
C          3.31827        5.15757       15.58904
H          4.18420        5.79156       15.43242
H          3.67190        4.18788       15.92357
H          2.73623        5.58793       16.39802
C          0.85580        3.73993       14.32450
H          0.34347        3.47425       13.40517
H          0.11878        4.17331       14.99515
H          1.21098        2.82328       14.77938
C          3.31992        6.91148       10.34287
H          2.46049        7.42370       10.76245
H          2.95086        6.16863        9.64161
H          3.89593        7.63954        9.78060
C          6.00519        5.41147       10.96858
H          6.41455        4.62259       11.59474
H          6.75924        6.18840       10.88799
H          5.85621        4.99803        9.97612
C          4.94113        7.37688       13.00490
H          5.69274        6.95862       13.66715
H          4.12765        7.74098       13.61987
H          5.38732        8.23510       12.51233
