92
CSD_code = RESZEV | q = 1 | S = 0 | Stoichiometry = C40H46N2OsPSi2(1+) | MND = 8
Os         5.44710        3.76126        5.38102
P          5.41757        4.74325        3.26400
N          5.66292        1.96527        4.53969
N          7.42870        3.59108        5.28876
C          3.52847        4.69648        6.17893
H          2.72826        5.18074        5.63616
C          4.60721        5.40750        6.83731
C          5.28957        4.44249        7.62247
C          4.69929        3.15097        7.42265
C          3.56522        3.34985        6.56682
H          2.80797        2.60761        6.36306
C          6.35970        4.73457        8.62226
H          5.89886        4.85720        9.60289
H          6.88634        5.65483        8.38722
H          7.07569        3.91857        8.69317
Si         4.51181        7.28822        7.05379
Si         5.08683        1.54792        8.35629
C          6.92783        1.51805        4.31324
C          7.17379        0.27385        3.73533
H          8.18738       -0.04329        3.55646
C          6.11638       -0.54394        3.39689
H          6.28519       -1.50993        2.95039
C          4.82450       -0.08962        3.64839
H          3.96689       -0.69555        3.40649
C          4.64976        1.15589        4.20803
H          3.65364        1.53162        4.39009
C          7.94658        2.44900        4.75752
C          9.32139        2.22725        4.69833
H          9.69948        1.31805        4.26191
C         10.18901        3.17296        5.20505
H         11.25508        3.01927        5.17085
C          9.65226        4.32903        5.76720
H         10.29072        5.09055        6.18368
C          8.28547        4.49423        5.78372
H          7.84792        5.38832        6.20251
C          3.78677        5.25755        2.62575
C          2.70052        4.42405        2.88460
H          2.85556        3.52146        3.46094
C          1.43960        4.75064        2.42341
H          0.60415        4.09674        2.62439
C          1.24830        5.92339        1.70954
H          0.26366        6.18402        1.35349
C          2.32080        6.76324        1.46171
H          2.17258        7.68098        0.91341
C          3.58724        6.43588        1.91559
H          4.41441        7.10201        1.72029
C          6.48316        6.17413        2.88317
C          6.88988        6.45623        1.58028
H          6.59024        5.80824        0.76840
C          7.67406        7.56719        1.32964
H          7.98622        7.78417        0.31932
C          8.05497        8.40373        2.36795
H          8.66626        9.26940        2.16447
C          7.64655        8.13060        3.66280
H          7.93398        8.78599        4.47097
C          6.86442        7.01858        3.91768
H          6.52205        6.79902        4.91812
C          5.99623        3.54512        2.00755
C          7.37139        3.35089        1.87905
H          8.05360        3.99060        2.42400
C          7.86234        2.37001        1.03856
H          8.92862        2.23518        0.93632
C          6.98770        1.56328        0.32822
H          7.37072        0.79664       -0.32739
C          5.62129        1.75075        0.45194
H          4.93827        1.13152       -0.10950
C          5.12452        2.73286        1.29105
H          4.05764        2.88003        1.37478
C          6.17445        8.13004        7.48174
H          7.02318        7.77351        6.90615
H          6.41376        8.00899        8.53368
H          6.09067        9.19674        7.29868
C          3.79508        7.99759        5.43110
H          4.12957        7.45280        4.55159
H          4.07643        9.03708        5.29864
H          2.71004        7.95888        5.44148
C          3.30320        7.57751        8.49923
H          3.13537        8.63883        8.65403
H          3.68521        7.16830        9.43002
H          2.33787        7.11634        8.31165
C          3.82047        0.22753        7.82051
H          3.86978        0.01812        6.75528
H          2.80399        0.52640        8.05700
H          4.01054       -0.70480        8.34230
C          4.96042        1.86515       10.22929
H          4.06764        2.42841       10.48383
H          5.81680        2.41043       10.61240
H          4.91287        0.92117       10.76266
C          6.83687        0.92892        7.88462
H          6.83881        0.43767        6.91494
H          7.18866        0.20507        8.61256
H          7.57043        1.72995        7.84575
