135
CSD_code = RIKTUC | q = 0 | S = 0 | Stoichiometry = C52H71N4O3P2Si2Y | MND = 7
Y         12.16226       10.09600        4.42501
C         11.22541       12.45804        6.05203
P         12.35963       13.05842        4.82685
C         11.82198       14.77844        4.49923
C         12.15776       15.46227        3.34000
H         12.71913       14.96300        2.56953
C         11.76201       16.77596        3.15962
H         12.02790       17.29513        2.24994
C         11.02845       17.42356        4.13826
H         10.71792       18.44823        3.99535
C         10.69305       16.74961        5.30061
H         10.11825       17.24758        6.06801
C         11.09055       15.43875        5.48300
H         10.81713       14.90188        6.38021
C         13.89598       13.32907        5.77175
C         14.98751       12.51133        5.51454
H         14.89780       11.75334        4.74446
C         16.15561       12.66129        6.23947
H         17.00355       12.02116        6.04205
C         16.23663       13.63064        7.22580
H         17.14821       13.74894        7.79331
C         15.14531       14.44189        7.49081
H         15.20594       15.19220        8.26616
C         13.97423       14.29240        6.76950
H         13.12125       14.92001        6.97856
N         12.63044       12.15560        3.51360
Si        13.67640       12.50550        2.16770
C         12.64609       13.04537        0.63787
H         12.19311       12.18215        0.16096
H         13.28879       13.52037       -0.09710
H         11.84760       13.74054        0.87816
C         14.54796       10.87568        1.68221
H         13.81949       10.13781        1.35901
H         15.10336       10.44649        2.51337
H         15.24169       11.03711        0.86239
C         15.05670       13.80092        2.50615
H         16.01708       13.32084        2.66992
H         14.84252       14.40082        3.38653
H         15.17486       14.47710        1.66496
P          9.79383       11.80414        5.26127
C          9.04440       13.25120        4.45683
C          8.12077       14.06400        5.09952
H          7.78971       13.81224        6.09731
C          7.63061       15.18720        4.45776
H          6.90857       15.81881        4.95481
C          8.06312       15.50408        3.18054
H          7.67821       16.38246        2.68349
C          8.98946       14.69693        2.54096
H          9.32958       14.95030        1.54688
C          9.48202       13.57398        3.17916
H         10.21122       12.93172        2.70380
C          8.65783       11.37822        6.62190
C          7.61228       10.48870        6.40191
H          7.48646       10.05779        5.41890
C          6.75072       10.15749        7.43205
H          5.93550        9.47017        7.25522
C          6.93425       10.70698        8.69099
H          6.26307       10.44567        9.49645
C          7.98081       11.58656        8.91598
H          8.12818       12.00930        9.89915
C          8.84055       11.92895        7.88681
H          9.67760       12.58877        8.05809
N          9.96473       10.56334        4.24492
Si         8.94293       10.17582        2.88757
C          8.60294        8.29197        2.92114
H          8.13638        7.94230        3.83757
H          9.53856        7.76002        2.78194
H          7.95019        8.02108        2.09794
C          9.84114       10.52084        1.23380
H          9.72232       11.54176        0.88353
H          9.45881        9.86125        0.46116
H         10.90171       10.31389        1.34740
C          7.26089       11.10014        2.85927
H          7.23880       11.84082        2.06656
H          7.06332       11.62384        3.78918
H          6.44154       10.41084        2.68311
O         12.71900       10.56990        6.27235
C         11.97420       11.44907        6.89988
N         11.85984       11.62607        8.15643
C         12.60744       10.87047        9.14561
C         14.10948       11.14409        8.99849
H         14.44719       10.81914        8.01771
H         14.67133       10.61375        9.76519
H         14.30221       12.21077        9.08870
C         12.34986        9.36132        9.05134
H         12.60714        9.00625        8.05494
H         11.29768        9.15935        9.24767
H         12.95315        8.83069        9.78634
C         12.12425       11.38263       10.50822
H         12.29909       12.45244       10.57846
H         12.65233       10.87937       11.31512
H         11.05714       11.20278       10.61164
O         12.17139        8.73970        2.73710
N         13.91122        8.51611        4.05509
C         13.20853        8.06043        3.05983
C         15.11282        7.92119        4.64281
C         14.72929        6.73655        5.54319
H         14.29295        5.92091        4.97031
H         14.00663        7.07302        6.28405
H         15.61094        6.35790        6.05579
C         16.17966        7.49874        3.61775
H         15.97077        6.53066        3.17361
H         17.14530        7.43433        4.11518
H         16.25179        8.23896        2.82409
C         15.72269        9.01573        5.53220
H         16.18720        9.78122        4.91460
H         16.47902        8.59710        6.19311
H         14.93761        9.47439        6.13144
C         13.49688        6.82027        2.20767
H         13.91387        6.02166        2.81933
H         14.23491        7.10944        1.45545
C         12.23299        6.35996        1.54169
C         11.70567        7.07186        0.47098
H         12.23482        7.93499        0.09672
C         10.50741        6.69227       -0.10394
H         10.10497        7.25790       -0.93171
C          9.82200        5.58924        0.37722
H          8.88531        5.29266       -0.07154
C         10.34482        4.86731        1.43526
H          9.81935        4.00235        1.81420
C         11.54143        5.25298        2.01475
H         11.94069        4.68194        2.84272
O         11.14250        8.06677        5.60470
C         11.08990        6.69538        5.22892
H         12.02143        6.44791        4.72526
H         10.25169        6.53110        4.53898
C         10.86896        5.92467        6.53543
H         11.82453        5.66715        6.99105
H         10.30828        5.00760        6.36716
C         10.10597        6.93358        7.40851
H          9.09191        6.60478        7.62819
H         10.62396        7.10059        8.35069
C         10.09113        8.21200        6.55427
H          9.13414        8.30492        6.02465
H         10.27190        9.12518        7.12484
