66
CSD_code = RIQTOB | q = 1 | S = 0 | Stoichiometry = C22H38Cl2NSi2Ti(1+) | MND = 12
Ti         4.75790        0.59416        3.44694
Cl         3.31548        1.25673        5.05585
C          5.52700       -0.66978        5.35379
H          5.44495       -0.33769        6.37940
Cl         2.94965       -0.18310        2.35263
C          6.62453       -0.41666        4.51099
H          7.54253        0.07140        4.80807
C          6.40575       -1.09812        3.29092
H          7.12807       -1.23169        2.49846
C          5.17476       -1.76926        3.38767
H          4.76668       -2.43653        2.64132
Si         4.69829        4.27900        4.66804
C          4.62182       -1.50910        4.66324
Si         4.81030        1.05826       -0.28702
C          3.29052       -2.03496        5.13891
H          2.51404       -1.58389        4.50290
C          2.99228       -1.66987        6.59476
H          3.76028       -2.08360        7.25292
H          2.99416       -0.58336        6.69623
C          1.61952       -2.18757        6.99114
H          1.39689       -1.93828        8.03016
H          0.85450       -1.74283        6.35211
N          1.55519       -3.66576        6.83259
H          2.31736       -4.05653        7.39887
C          0.27815       -4.21429        7.31259
H          0.12258       -3.95348        8.35784
H          0.26917       -5.29855        7.21560
H         -0.53961       -3.80234        6.72356
C          1.82660       -4.04841        5.42306
H          1.05658       -3.59352        4.79650
H          1.75504       -5.13452        5.33531
C          3.20251       -3.56021        4.99193
H          3.35864       -3.84631        3.95313
H          3.98419       -4.03742        5.58834
C          6.39523        2.28604        3.32401
H          7.23264        2.47770        3.98244
C          6.44005        1.55125        2.12113
H          7.32186        1.08849        1.69893
C          5.18997        1.66328        1.46895
C          4.38231        2.49621        2.29654
H          3.39352        2.85997        2.03821
C          5.12729        2.90334        3.43512
C          5.28177        3.74682        6.40878
H          5.10583        4.54172        7.12609
H          6.34716        3.53104        6.42094
H          4.75665        2.86319        6.75984
C          5.72027        5.78231        4.08803
H          5.46167        6.07734        3.07594
H          6.78650        5.58002        4.10810
H          5.53622        6.63324        4.73454
C          2.83888        4.68421        4.58156
H          2.57179        5.09162        3.61049
H          2.57964        5.42892        5.32703
H          2.21913        3.81095        4.75980
C          6.08558        1.91667       -1.41570
H          6.02289        2.99762       -1.34119
H          5.90945        1.64917       -2.45169
H          7.10389        1.62978       -1.17308
C          3.03772        1.56058       -0.76768
H          2.30040        1.14454       -0.08771
H          2.80077        1.20589       -1.76551
H          2.91973        2.64045       -0.77067
C          5.06763       -0.83630       -0.35607
H          6.05574       -1.12233       -0.00292
H          4.97320       -1.19551       -1.37588
H          4.32882       -1.35895        0.24569
