52
CSD_code = RIQTEQ | q = 0 | S = 0 | Stoichiometry = C17H29ClFeO2Si2 | MND = 8
Fe         2.52199        4.59491        2.49969
Cl         0.24126       -0.04358        4.74038
Si         2.32062        2.73126        3.75729
Si         0.12047        1.94823        4.22983
O          1.51517        3.11499        0.23131
O          5.15388        3.75783        1.65332
C          3.04603        6.31948        3.74696
C          3.02164        6.70213        2.36078
C          1.70123        6.51427        1.87973
C          0.90582        6.01365        2.96318
C          1.72115        5.96869        4.13022
C          4.19212        6.56338        4.68520
H          5.13819        6.39173        4.16851
H          4.14526        5.86239        5.51969
C          4.13952        7.35393        1.60784
H          5.10462        7.08121        2.02649
H          4.03888        8.43986        1.65661
H          4.12693        7.06094        0.56054
C          1.18392        6.93348        0.53957
H          0.82739        7.96426        0.58484
H          0.35711        6.30210        0.22397
H          1.96470        6.87630       -0.21447
C         -0.58601        5.89163        2.95711
H         -0.95096        5.59109        1.97795
H         -1.03912        6.85419        3.20372
H         -0.91704        5.16078        3.68979
C          1.20660        5.78450        5.52064
H          2.01853        5.79185        6.24183
H          0.65667        4.85332        5.62394
H          0.52936        6.60537        5.76451
C          4.15870        7.99742        5.21948
H          4.98665        8.16735        5.90385
H          3.22724        8.18413        5.74891
H          4.23495        8.70950        4.40142
C          4.11310        4.04922        2.04360
C          1.87403        3.67607        1.16900
C          3.12303        1.17579        2.94889
H          2.69841        0.98548        1.96833
H          2.96260        0.28777        3.55229
H          4.19409        1.29471        2.81990
C          3.32271        2.91578        5.39347
H          2.87028        3.61252        6.08760
H          4.33231        3.25677        5.18778
H          3.39469        1.95633        5.89535
C         -0.94555        2.00969        2.64789
H         -0.50230        1.39775        1.86849
H         -1.01835        3.02016        2.26028
H         -1.95483        1.64334        2.81643
C         -0.92864        2.68116        5.65859
H         -0.34912        2.77560        6.57245
H         -1.77196        2.03197        5.88070
H         -1.33237        3.65909        5.41591
