75
CSD_code = RIRNEL | q = 0 | S = 0 | Stoichiometry = C24H43N5Si2Ti | MND = 5
Ti        -0.59157        2.56049        3.60939
N          0.25884        1.69496        4.79483
C          0.99288        0.75563        5.55162
C          1.28763       -0.50826        4.70673
H          1.97871       -0.26460        3.90186
H          0.36164       -0.88037        4.27270
H          1.73036       -1.28454        5.32758
C          0.18563        0.32665        6.79917
H         -0.74616       -0.13802        6.48602
H         -0.04612        1.20174        7.40428
H          0.75550       -0.37688        7.40301
C          2.35108        1.33328        6.01995
H          2.89423        1.72238        5.16048
H          2.94765        0.56051        6.50103
H          2.19180        2.14329        6.72769
Si         1.01474        5.50756        3.54857
C         -0.00739        7.09641        3.93160
H         -0.72199        6.93274        4.73411
H         -0.56785        7.41690        3.05696
H          0.63191        7.92331        4.22382
C          2.42500        6.10246        2.37927
H          3.12124        5.30126        2.14818
H          2.99326        6.90920        2.83040
H          2.02792        6.47058        1.43731
C          1.73445        4.80065        5.16539
H          2.81778        4.75519        5.14128
H          1.34187        3.78885        5.28731
H          1.45440        5.39544        6.02895
N          0.13170        4.22677        2.86240
C         -0.85648        4.44451        1.86638
H         -0.67819        3.78596        0.98957
H         -0.82637        5.48020        1.48717
C         -2.35219        4.18753        2.31643
C         -3.25243        4.99903        1.37710
H         -4.30609        4.84023        1.60192
H         -3.07854        4.68258        0.34938
H         -3.03377        6.06377        1.44217
C         -2.73637        2.67500        2.12315
H         -3.83269        2.64824        2.01183
H         -2.31632        2.37609        1.13804
N         -2.29987        1.77893        3.13869
Si        -3.36712        0.88619        4.12046
C         -3.40629        1.45969        5.95401
H         -2.38554        1.61786        6.29301
H         -3.86698        0.71745        6.59830
H         -3.95398        2.39055        6.08394
C         -2.84435       -0.96094        4.09774
H         -1.78991       -1.05314        4.33708
H         -3.01135       -1.42749        3.13100
H         -3.40214       -1.52999        4.83389
C         -5.18261        0.95359        3.49316
H         -5.25809        0.64091        2.45607
H         -5.59502        1.95583        3.56931
H         -5.81823        0.29716        4.07713
N         -1.69052        3.92293        4.59925
C         -1.68101        4.24836        5.89038
H         -0.97794        3.69239        6.50345
C         -2.49995        5.22489        6.41943
H         -2.46613        5.46623        7.47025
C         -3.37759        5.88269        5.56235
H         -4.04856        6.64176        5.93691
C         -3.36945        5.55973        4.21899
H         -4.03424        6.07394        3.54413
C         -2.50017        4.57300        3.75189
N          0.43195        1.50273        2.21991
C         -0.03230        0.34527        1.73231
H         -1.06489        0.11451        1.98038
C          0.74757       -0.52368        0.98850
H          0.32913       -1.44932        0.62365
C          2.06827       -0.18892        0.72097
H          2.70485       -0.84673        0.14914
C          2.54403        1.02426        1.20705
H          3.56080        1.33228        1.01603
C          1.69938        1.83543        1.94242
H          2.02627        2.79003        2.34688
