43
CSD_code = RUGMUB | q = 0 | S = 0 | Stoichiometry = C16H24Si2Ti | MND = 12
Ti         6.11791        2.26114       13.14962
C          4.55925        3.08554       14.25239
C          7.29032        3.89716       13.67369
C          7.44167        0.35993       13.14486
C          6.09702       -0.03449       13.43491
C          5.79665        0.41713       14.73842
C          6.92895        1.06575       15.26373
C          7.93265        1.04394       14.27860
C          6.58958        1.67629       10.96216
C          5.24667        1.27015       11.24407
C          4.46417        2.44191       11.33734
C          5.28939        3.55691       11.10475
C          6.59768        3.08636       10.89036
Si         8.06428        0.56797       11.37123
C          8.31064       -0.98749       10.29225
C          9.70577        1.54883       11.34387
Si         4.85239       -0.39058       12.05857
C          3.06015       -0.40708       12.72553
C          5.10150       -1.99339       11.05147
H          4.88836        0.19892       15.28646
H          7.03609        1.44220       16.27336
H          8.94933        1.39188       14.41292
H          3.38795        2.47296       11.45371
H          4.96140        4.58577       11.02433
H          7.44451        3.69693       10.60204
H          3.67619        2.43469       14.21422
H          4.81951        3.21517       15.31037
H          4.25306        4.06849       13.87307
H          7.42620        3.98336       14.75902
H          8.28994        3.81166       13.22836
H          6.86202        4.84569       13.32623
H          7.44759       -1.19675        9.67310
H          8.51074       -1.86321       10.89964
H          9.16155       -0.84451        9.63537
H          9.65811        2.45004       11.94746
H          9.95847        1.83953       10.32955
H         10.51995        0.93773       11.71916
H          2.89703       -1.27536       13.35541
H          2.35003       -0.46136       11.90701
H          2.82935        0.47793       13.31055
H          4.32366       -2.70616       11.30236
H          6.05619       -2.46081       11.25762
H          5.04035       -1.80597        9.98518
