73
CSD_code = RUKSUL | q = 0 | S = 0 | Stoichiometry = C26H42N2Si2Ti | MND = 4
Ti        18.03170        1.41274       10.54430
Si        19.91335        2.41661       12.98210
N         18.84859        2.66587       11.66252
C         18.70406        3.90716       10.93493
C         18.75734        5.15945       11.81565
C         18.66892        6.42107       10.96301
C         20.07501        0.50750       13.12737
C         21.65577        3.19771       12.77183
C         19.24587        3.03262       14.68187
C         19.28579        0.21175        9.40209
C         20.45850        1.08618        9.28157
C         21.66549        0.82010        9.94200
C         22.75416        1.66061        9.81020
C         22.67709        2.79181        9.01342
C         21.49404        3.07121        8.34508
C         20.40231        2.23437        8.47193
H         19.52408        3.98193       10.18871
H         17.92763        5.12243       12.52597
H         19.68972        5.16030       12.37956
H         19.53710        6.46553       10.30132
H         18.69206        7.30443       11.60498
H         21.10501        0.22106       13.30972
H         19.73999        0.00718       12.21612
H         19.48921        0.12742       13.95905
H         21.90933        3.30882       11.72191
H         21.71157        4.17949       13.23242
H         22.42414        2.58465       13.23144
H         19.11419        4.10982       14.70618
H         18.28891        2.58062       14.92884
H         19.93964        2.77265       15.47573
H         18.80420        0.07402        8.42289
H         19.55282       -0.77137        9.82179
H         21.75211       -0.07076       10.55123
H         23.67580        1.42761       10.32455
H         23.53079        3.44486        8.90815
H         21.42944        3.94705        7.71344
H         19.48361        2.44786        7.93150
C         17.35934        3.90716       10.15367
N         17.21483        2.66586        9.42607
C         16.77760        0.21175       11.68650
C         15.60489        1.08618       11.80703
C         14.39790        0.82010       11.14659
C         13.30923        1.66061       11.27839
C         13.38629        2.79181       12.07518
C         14.56934        3.07120       12.74352
C         15.66107        2.23437       12.61667
H         16.57978        2.44786       13.15710
H         14.63395        3.94705       13.37516
H         12.53260        3.44485       12.18045
H         12.38759        1.42760       10.76405
H         14.31128       -0.07076       10.53737
H         17.25918        0.07402       12.66571
H         16.51057       -0.77137       11.26681
Si        16.15005        2.41660        8.10651
C         15.98840        0.50749        7.96121
H         14.95821        0.22110        7.77914
H         16.32366        0.00723        8.87249
H         16.57404        0.12739        7.12929
C         14.40763        3.19770        8.31678
H         14.15407        3.30881        9.36669
H         14.35183        4.17949        7.85619
H         13.63925        2.58465        7.85717
C         16.81750        3.03261        6.40673
H         16.94918        4.10981        6.38243
H         17.77447        2.58062        6.15976
H         16.12374        2.77264        5.61286
C         17.30605        5.15944        9.27295
C         17.39447        6.42107       10.12559
H         16.52629        6.46553       10.78728
H         17.37133        7.30442        9.48362
H         18.13576        5.12243        8.56263
H         16.37367        5.16030        8.70904
H         16.53933        3.98192       10.89988
