99
CSD_code = SAHZIL | q = 0 | S = 0 | Stoichiometry = C42H48FeN4P2Si2 | MND = 4
C         10.13687        3.06791        4.43305
C          9.24279        3.99317        3.89545
C          7.91584        3.60094        3.56121
H          7.59810        2.60269        3.82254
C          7.08972        4.45560        2.89158
H          6.08770        4.15622        2.61929
C          7.57540        5.72038        2.53388
H          6.98863        6.40222        1.94159
C          8.82008        6.07871        2.99040
H          9.23378        7.05046        2.78652
C         12.50744        2.75067        2.61841
C         11.68258        2.13920        1.68477
H         10.65605        1.92451        1.94951
C         12.16874        1.81994        0.42871
H         11.52270        1.34653       -0.29651
C         13.48197        2.11197        0.10034
H         13.86093        1.86541       -0.88086
C         14.30897        2.72706        1.02808
H         15.33220        2.95865        0.76911
C         13.82253        3.04865        2.28113
H         14.44886        3.54081        3.01116
C         12.62206        2.08562        5.41859
C         13.58214        1.15077        5.06176
H         13.89365        1.06359        4.03048
C         14.13315        0.32384        6.02662
H         14.87998       -0.40526        5.74679
C         13.72905        0.42734        7.34685
H         14.16234       -0.21912        8.09599
C         12.76658        1.35829        7.70625
H         12.44870        1.43553        8.73616
C         12.21763        2.18448        6.74430
H         11.46376        2.91577        6.99836
C         14.68425        4.61166        6.40498
H         14.09049        4.25468        7.23952
H         15.49712        5.20864        6.80397
H         15.11840        3.74116        5.92426
C         14.79476        6.35933        3.84163
H         14.50923        6.03640        2.84696
H         15.83051        6.07814        4.00310
H         14.74099        7.44241        3.85086
C         12.67693        7.00944        6.03144
H         11.84723        7.29443        5.37365
H         13.27929        7.89974        6.16464
H         12.27736        6.72915        6.99663
C         11.59109        9.10950        3.78886
C         11.95034        8.11931        2.87132
C         12.79113        8.43413        1.76816
H         13.16600        9.44314        1.68465
C         13.08672        7.49065        0.82762
H         13.71455        7.73042       -0.01840
C         12.53838        6.20933        0.96526
H         12.69837        5.44209        0.22597
C         11.80262        5.94834        2.09464
H         11.37645        4.97640        2.26634
C         10.21676       10.23806        6.02109
C         11.45302       10.48725        6.59918
H         12.32598       10.00278        6.18613
C         11.55958       11.35387        7.67194
H         12.52463       11.54992        8.11699
C         10.42694       11.97272        8.17566
H         10.50834       12.65009        9.01313
C          9.18918       11.72450        7.60398
H          8.30667       12.20862        7.99700
C          9.08347       10.85765        6.53146
H          8.12167       10.65846        6.07842
C          8.69461        9.77083        3.69377
C          7.49561        9.09197        3.53253
H          7.38178        8.12918        4.00546
C          6.47631        9.65202        2.78284
H          5.54180        9.12270        2.66292
C          6.65039       10.89143        2.18913
H          5.85503       11.32782        1.60252
C          7.84628       11.57440        2.34912
H          7.98094       12.54268        1.88865
C          8.86482       11.01525        3.09765
H          9.79954       11.54318        3.23252
C          9.20141        7.89414        8.11414
H         10.20818        8.28200        8.23388
H          8.97014        7.28872        8.98451
H          8.52652        8.74234        8.11683
C          7.19012        6.41135        6.27463
H          6.55561        7.28861        6.20198
H          6.83371        5.81949        7.11108
H          7.05657        5.82384        5.37258
C         10.04908        5.28269        6.71674
H          9.39925        4.41756        6.76998
H         10.67232        5.29171        7.60364
H         10.70187        5.11951        5.85608
Fe        10.95172        6.14577        4.65331
H          9.80772        2.04157        4.53017
H         11.90423       10.12116        3.55656
N         12.31939        4.76163        4.51513
N          9.60278        5.28425        3.70919
N          9.65979        7.56929        5.08858
N         11.55819        6.83919        3.04685
P         11.85141        3.26227        4.26121
P         10.08357        9.04247        4.65120
Si        13.63377        5.62304        5.16996
Si         9.02949        6.86572        6.51086
