95
CSD_code = SESBOH | q = 0 | S = 0 | Stoichiometry = C38H53PSi2Ti | MND = 9
Ti         1.45232        0.68085        3.83574
Si         4.86803        0.17842        2.63878
Si         7.84589        5.08701        7.66927
P         -0.20810        2.40998        2.98810
C          2.75500        3.35513        4.30791
C          1.60256        3.09082        5.24079
C          1.45278        1.93325        5.94429
C          2.21265        0.73954        5.79707
C          3.61329        0.67920        5.20955
C          4.69132        1.47219        5.97709
C          4.34965        2.92907        6.29712
C          4.06832        3.73750        5.03741
C          2.90109        2.19658        3.33125
C          3.51068        0.95767        3.70873
C          5.48000        3.49060        7.13452
C          6.45373        4.27778        6.67851
C          2.93710        2.58415        1.91155
C          3.52441        3.77062        1.45802
C          3.49429        4.11493        0.11948
C          2.88122        3.28862       -0.80774
C          2.30695        2.10145       -0.37988
C          2.33669        1.75695        0.95770
C          5.45120        3.03795        8.54007
C          4.42509        3.42570        9.39460
C          4.40590        2.99665       10.70899
C          5.40186        2.15911       11.18269
C          6.41813        1.75313       10.33426
C          6.44321        2.19127        9.02287
C          6.27782        1.46150        2.40358
C          4.49052       -0.43310        0.85743
C          5.61533       -1.33875        3.54475
C          7.32350        5.58069        9.43635
C          9.40380        3.98166        7.75296
C          8.29704        6.67592        6.70724
C         -1.63385        2.61004        4.14252
C         -1.12252        1.93880        1.44996
C          0.00286        4.18491        2.52580
C          0.49232       -0.88565        2.48464
C         -0.44208       -0.65711        3.52215
C          0.12827       -1.09590        4.72376
C          1.40789       -1.60596        4.44000
C          1.63952       -1.47629        3.05965
H          2.48618        4.23611        3.71411
H          0.99696        3.94890        5.51787
H          0.61967        1.88207        6.65173
H          2.03260        0.00248        6.58217
H          3.92750       -0.36885        5.30304
H          5.61672        1.44315        5.39645
H          4.87616        0.95537        6.92449
H          3.45044        2.93490        6.92410
H          4.88931        3.61432        4.32884
H          4.01070        4.79367        5.31866
H          6.42793        4.54695        5.63000
H          4.02155        4.42919        2.15541
H          3.95730        5.03618       -0.20560
H          2.85409        3.56459       -1.85139
H          1.83140        1.44551       -1.09685
H          1.88498        0.82935        1.30211
H          3.64995        4.08544        9.03087
H          3.61119        3.31580       11.36809
H          5.38481        1.82273       12.20911
H          7.19369        1.09378       10.69735
H          7.22946        1.87370        8.35477
H          6.71640        1.77748        3.34500
H          7.07462        1.04095        1.79814
H          5.91320        2.34780        1.89330
H          4.49270        0.39317        0.15499
H          5.26749       -1.12598        0.54726
H          3.53977       -0.94589        0.75714
H          6.36919       -1.80981        2.92204
H          6.09568       -1.05965        4.47665
H          4.86569       -2.09103        3.77094
H          6.35903        6.07895        9.43572
H          7.24147        4.71579       10.08592
H          8.04475        6.26046        9.88070
H          9.29195        3.18871        8.48544
H          9.61440        3.51890        6.79333
H         10.27685        4.56370        8.03332
H          9.09391        7.22380        7.20056
H          8.63477        6.44585        5.70141
H          7.44553        7.34426        6.62189
H         -1.30838        3.18927        5.00524
H         -2.45552        3.12885        3.64733
H         -1.97504        1.63659        4.49153
H         -1.50635        0.92371        1.51055
H         -1.95430        2.62518        1.28588
H         -0.43434        2.00594        0.60752
H         -0.94614        4.57139        2.15281
H          0.31095        4.77186        3.38641
H          0.75751        4.26899        1.74566
H          0.28393       -0.81394        1.42158
H         -1.47538       -0.36049        3.39226
H         -0.36330       -1.11296        5.68945
H          2.06016       -2.10658        5.14229
H          2.47836       -1.89572        2.52180
