43
CSD_code = SIFSUV | q = 0 | S = 0 | Stoichiometry = C16H22FeO2Si2 | MND = 8
Fe         0.59577        2.33759        3.07442
Si         0.21939        3.10898        5.16030
Si        -0.96873        5.16629        5.34102
O         -2.24930        1.88115        2.78755
O          0.77098       -0.38225        4.04640
C          1.21005        2.82079        0.87234
C          0.65061        2.33646       -0.32101
C          1.17122        1.19514       -0.87689
C          2.23590        0.50672       -0.27369
C          2.80039        0.94534        0.89738
C          2.29941        2.11568        1.49012
C          2.69047        2.86524        2.65586
C          1.94876        4.06674        2.66349
C          0.95470        3.99554        1.66502
C         -1.12764        2.10490        2.90911
C          0.72589        0.72021        3.72719
C          1.93827        3.21908        6.03184
C         -0.75972        1.88801        6.28641
C         -0.63999        6.43278        3.94572
C         -0.52624        6.03062        6.99369
C         -2.84742        4.81789        5.33250
H         -0.16075        2.86915       -0.79619
H          0.76470        0.81594       -1.80283
H          2.61848       -0.38231       -0.75299
H          3.62721        0.41750        1.35079
H          3.58178        2.67779        3.23260
H          2.12101        4.90802        3.31424
H          0.31316        4.80684        1.36177
H          2.48018        2.28287        5.94301
H          2.56244        4.00185        5.61624
H          1.81297        3.42759        7.08914
H         -0.21943        0.96050        6.44468
H         -0.95224        2.32400        7.26198
H         -1.71753        1.63549        5.84437
H         -1.18655        7.35547        4.11916
H          0.41077        6.69173        3.86658
H         -0.95922        6.04361        2.98486
H         -1.09149        6.94749        7.13725
H         -0.73438        5.38327        7.84015
H          0.52794        6.28746        7.03309
H         -3.43445        5.73067        5.38468
H         -3.13644        4.29408        4.42659
H         -3.13603        4.19430        6.17234
