104
CSD_code = SIGMIG | q = 0 | S = 0 | Stoichiometry = C40H54N6OSi2Ti | MND = 5
Ti         6.71200       -0.30437        5.58663
O          3.81512        0.45752        6.06976
N          8.47748       -0.44706        4.92141
N          6.31249       -2.17642        5.84003
N          6.00916        0.82151        4.22095
N          6.05855        0.19989        7.35533
N         10.48233        0.23293        3.77875
N          7.60769        1.96698        7.85260
Si         6.33845        0.56200        2.54655
Si         9.14262        2.59328        7.20765
C          6.72667       -2.60692        7.08171
C          8.04526       -2.35715        7.50487
C          8.46195       -2.71858        8.77168
C          7.58874       -3.33588        9.65451
C          6.28763       -3.59530        9.25046
C          5.85868       -3.24313        7.98773
C          5.40555       -2.92073        5.12151
C          5.38839       -4.32494        5.16227
C          4.50615       -5.04118        4.38014
C          3.61986       -4.39128        3.53557
C          3.63092       -3.00558        3.47966
C          4.50575       -2.27645        4.25849
C          3.81975        1.03060        7.36705
C          4.89929        0.33175        8.21112
C          3.74248        1.38238        5.00179
C          5.14052        1.90296        4.61111
C          7.70890        1.75528        1.91535
C          4.79362        0.87052        1.44205
C          6.89622       -1.24861        2.27523
C          8.79405        3.08652        5.40214
C          9.62680        4.05964        8.32271
C         10.44529        1.20521        7.31573
C          7.11767        0.90963        7.16996
C          7.02911        2.43365        9.06951
C          6.25051        3.59062        9.08480
C          5.71337        4.02004       10.29302
C          5.94635        3.32267       11.46170
C          6.72443        2.17794       11.43649
C          7.27466        1.72075       10.24945
C          5.97969        4.38017        7.83814
C          8.11389        0.48174       10.21372
C          9.50917       -0.19859        4.38361
C         11.75666       -0.17156        3.50527
C         12.53328        0.67704        2.70080
C         13.83238        0.31422        2.39519
C         14.36898       -0.86992        2.87162
C         13.59925       -1.70172        3.66565
C         12.29489       -1.37339        3.99583
C         11.93174        1.95128        2.18992
C         11.46736       -2.27322        4.86389
H          8.74044       -1.90899        6.79934
H          9.48282       -2.52737        9.07325
H          7.91932       -3.61703       10.64289
H          5.59925       -4.07646        9.93128
H          4.83925       -3.44255        7.68310
H          6.08993       -4.84227        5.80342
H          4.51372       -6.12129        4.42479
H          2.93198       -4.95821        2.92636
H          2.94255       -2.49115        2.82270
H          4.51751       -1.19231        4.22636
H          4.04790        2.10223        7.31523
H          2.82751        0.90169        7.82363
H          5.08359        0.90589        9.12726
H          4.56272       -0.67785        8.47376
H          3.07186        2.21589        5.25444
H          3.31802        0.83036        4.15789
H          5.56292        2.43887        5.47892
H          5.00884        2.63936        3.80567
H          7.86049        1.64781        0.84576
H          8.65349        1.54431        2.40885
H          7.46038        2.79601        2.10613
H          5.04193        0.74791        0.39338
H          4.40714        1.87751        1.56657
H          3.98830        0.17805        1.66841
H          7.75853       -1.27917        1.61716
H          7.18087       -1.71963        3.21809
H          6.11660       -1.85222        1.82077
H          9.71723        3.16711        4.83839
H          8.27772        4.03909        5.31336
H          8.18479        2.31484        4.92430
H         10.63661        4.38485        8.09802
H          9.59335        3.78916        9.37378
H          8.97265        4.91373        8.18677
H         11.18487        1.30789        6.52810
H         10.97934        1.19937        8.26235
H          9.96322        0.23802        7.18809
H          5.10716        4.91427       10.30867
H          5.52342        3.66877       12.39267
H          6.90868        1.63185       12.35004
H          4.92010        4.62363        7.76585
H          6.53107        5.31984        7.86211
H          6.28330        3.82957        6.95130
H          8.16735        0.02634       11.19919
H          9.12282        0.72021        9.87978
H          7.70102       -0.24798        9.51538
H         14.43234        0.96508        1.77453
H         15.38377       -1.14426        2.62443
H         14.01903       -2.62631        4.03731
H         12.65758        2.51779        1.61177
H         11.58239        2.56409        3.02050
H         11.06968        1.73384        1.56027
H         12.00884       -3.18817        5.09264
H         11.21838       -1.77370        5.80202
H         10.52992       -2.53495        4.37013
