92
CSD_code = SIMJIJ | q = 0 | S = 0 | Stoichiometry = C33H51IN4Si2Zr | MND = 5
I         12.30149       -2.27791        6.32623
Zr        10.51527       -0.76420        4.68382
Si         8.95645       -3.75882        4.76459
Si        11.46203        1.79540        6.56367
N          9.10440       -2.14348        5.27324
N         10.21395        0.73987        6.04084
N          8.49407       -0.20802        3.78276
N         11.50256       -0.18960        2.92113
C          8.42767       -1.56833        6.39566
H          9.11953       -1.46701        7.25712
H          7.59477       -2.20312        6.72510
C          7.83433       -0.13640        6.11272
C          8.86784        0.96782        6.49194
H          8.47526        1.93121        6.10675
H          8.84109        1.04168        7.59036
C          6.61786        0.05478        7.02687
H          6.23112        1.07030        6.96049
H          6.91517       -0.12433        8.05806
H          5.82487       -0.64922        6.78346
C          7.48775       -0.00792        4.65260
C          6.20167        0.27963        4.19448
H          5.39793        0.45142        4.88991
C          5.95121        0.35885        2.83677
H          4.96167        0.59604        2.47702
C          6.99079        0.11740        1.94938
H          6.83842        0.14918        0.88280
C          8.23796       -0.16187        2.47271
H          9.07646       -0.35134        1.81097
C          9.34855       -5.07147        6.10915
H          8.54187       -5.14849        6.83255
H         10.25014       -4.81001        6.65462
H          9.50045       -6.05594        5.68008
C         10.27307       -3.78014        3.37309
H         10.17181       -4.64543        2.72689
H         11.28225       -3.80913        3.77890
H         10.16619       -2.88833        2.74850
C          7.24023       -4.22730        3.96872
C          6.09006       -3.69447        4.82241
H          6.12048       -2.60691        4.86520
H          6.14872       -4.08379        5.83678
H          5.12726       -3.98984        4.40269
C          7.09621       -5.74336        3.84645
H          6.16214       -5.99918        3.34498
H          7.09313       -6.21229        4.82620
H          7.91671       -6.16248        3.26915
C          7.11745       -3.61966        2.57046
H          6.13295       -3.82548        2.14742
H          7.86561       -4.03659        1.90105
H          7.25154       -2.54006        2.60531
C         13.02065        1.21604        5.60866
H         13.64803        0.55438        6.19750
H         13.62730        2.07482        5.33931
H         12.74066        0.70157        4.68251
C         11.16245        3.62749        6.03872
H         11.28754        3.75615        4.96759
H         11.86088        4.29839        6.52747
H         10.16101        3.95985        6.29619
C         11.76385        1.82370        8.48909
C         11.61493        0.42205        9.08493
H         10.65247       -0.01598        8.82396
H         11.68819        0.46017       10.17184
H         12.39582       -0.23827        8.71900
C         13.17420        2.33216        8.79523
H         13.92434        1.67307        8.36842
H         13.33457        2.37548        9.87207
H         13.32432        3.32964        8.38961
C         10.76586        2.75681        9.18070
H         10.86553        3.77481        8.81425
H         10.94162        2.76608       10.25665
H          9.74055        2.43541        9.01159
C         12.10232       -1.23236        2.20669
C         11.61933       -1.68381        0.96790
H         10.78203       -1.17778        0.50152
C         12.19791       -2.76775        0.33788
H         11.80486       -3.10069       -0.61221
C         13.27051       -3.42808        0.91483
H         13.71509       -4.27712        0.41904
C         13.77634       -2.97910        2.12395
H         14.62548       -3.47220        2.57299
C         13.20932       -1.89202        2.76135
H         13.64530       -1.51477        3.67945
C         11.24716        1.00456        2.28678
C         10.44345        1.96557        2.93313
H         10.06579        1.75247        3.93091
C         10.16677        3.17729        2.33281
H          9.54047        3.89262        2.84845
C         10.68344        3.48854        1.08481
H         10.45775        4.43459        0.61752
C         11.51777        2.57534        0.45991
H         11.95920        2.81604       -0.49678
C         11.80259        1.35914        1.04365
H         12.47952        0.67556        0.55086
