83
CSD_code = TAFTIF | q = 0 | S = 0 | Stoichiometry = C22H52INO2OsP2Si2 | MND = 6
Os         7.10053        1.01683       10.91693
I          4.88933        1.43717       12.37658
P          7.69640       -1.08728       12.14639
P          6.74518        3.06651        9.52369
Si        10.19586       -0.03949       10.56925
Si         8.80495        1.17170        8.10636
O          6.23811        0.29829        9.75242
O          8.01791        1.72430       12.04536
N          8.87736        0.68169        9.74641
C         11.35663        1.21560       11.43877
H         11.79536        1.90549       10.72429
H         12.17340        0.70860       11.94572
H         10.82147        1.80519       12.17813
C         11.26639       -1.12601        9.42910
H         10.68277       -1.68089        8.70492
H         11.85506       -1.83130       10.00463
H         11.95714       -0.49894        8.88170
C          9.50956       -1.15348       11.98596
H          9.82156       -2.19535       11.90960
H          9.91741       -0.75353       12.91266
C          7.46572       -1.26766       14.03192
C          7.75841        0.11184       14.62852
H          7.82967        0.04064       15.71338
H          6.96730        0.81784       14.39058
H          8.69543        0.52075       14.25065
C          8.44171       -2.27790       14.64534
H          8.20672       -2.37778       15.70482
H          9.47471       -1.94911       14.57118
H          8.35775       -3.26100       14.19456
C          6.04001       -1.67887       14.39868
H          5.90071       -1.56264       15.47297
H          5.84787       -2.72018       14.15107
H          5.30236       -1.05188       13.90567
C          7.05317       -2.60486       11.21931
C          7.68826       -2.53712        9.82919
H          7.21780       -3.26788        9.17161
H          8.75486       -2.74629        9.86485
H          7.54291       -1.54719        9.39812
C          5.53720       -2.45561       11.06906
H          5.14295       -3.26349       10.45308
H          5.30669       -1.51259       10.57231
H          5.02374       -2.47785       12.02619
C          7.39202       -3.94982       11.85775
H          7.09629       -4.74613       11.17449
H          6.85537       -4.10262       12.79034
H          8.46097       -4.05093       12.03759
C          8.14888       -0.17978        6.91425
H          8.77942       -1.06330        6.93853
H          8.12974        0.17872        5.88846
H          7.14092       -0.48864        7.17733
C         10.48956        1.76055        7.43980
H         11.06165        0.90399        7.10927
H         11.07892        2.28087        8.18457
H         10.36473        2.41568        6.58515
C          7.55326        2.63055        7.95094
H          7.98578        3.53030        7.51236
H          6.76449        2.28449        7.28491
C          7.73472        4.52237       10.21445
C          9.19366        4.06249       10.22100
H          9.80213        4.77013       10.78382
H          9.59586        3.99182        9.21310
H          9.27744        3.08645       10.69762
C          7.28932        4.74711       11.66156
H          7.90564        5.51683       12.12542
H          7.41562        3.82717       12.23338
H          6.25062        5.05795       11.73002
C          7.62565        5.82093        9.41863
H          8.33329        6.54235        9.82758
H          6.63368        6.25899        9.48985
H          7.87792        5.67134        8.37018
C          5.01496        3.61358        8.93260
C          4.28349        4.44536        9.98585
H          3.24035        4.55473        9.69091
H          4.70811        5.44251       10.07476
H          4.29713        3.96229       10.95897
C          5.07583        4.41508        7.62726
H          4.06973        4.76315        7.39436
H          5.41253        3.81031        6.78963
H          5.71690        5.28670        7.70540
C          4.22531        2.32724        8.67429
H          3.30741        2.55653        8.13400
H          3.95209        1.84112        9.60688
H          4.80142        1.61552        8.08301
