80
CSD_code = TECKOB | q = 0 | S = 0 | Stoichiometry = C33H40ClIrOP2Si2 | MND = 6
Ir         1.64214        6.83050        4.53268
Cl         3.09886        8.54212        3.73257
P          3.49016        6.22333        6.07108
P          2.72187        5.82652        2.56411
Si         0.92617        8.27997        6.33457
Si        -0.01144        7.54183        2.91599
O         -0.12331        4.71797        5.74205
C          0.53000        5.52294        5.23277
C          1.30407       10.15898        6.16239
C         -0.89452        8.20163        6.94724
C          1.98888        7.69762        7.86373
C          3.42972        7.43912        7.44995
C          5.29087        6.16012        5.79698
C          5.90586        7.28351        5.24985
C          7.27436        7.30475        5.06291
C          8.04197        6.20833        5.41948
C          7.43303        5.08394        5.95011
C          6.06282        5.05352        6.13492
C          3.17136        4.59720        6.83402
C          3.12011        4.34922        8.19975
C          2.82703        3.07806        8.66347
C          2.58853        2.04406        7.77429
C          2.64123        2.28148        6.40984
C          2.92420        3.55093        5.94720
C         -0.20125        9.43687        2.63260
C         -1.80650        6.88037        3.12135
C          0.56752        6.80435        1.20198
C          2.08675        6.76929        1.11608
C          4.52772        5.82643        2.35860
C          5.21062        6.89272        1.78516
C          6.58932        6.85546        1.67810
C          7.29800        5.76133        2.14289
C          6.62516        4.70412        2.73343
C          5.25012        4.74103        2.85092
C          2.32549        4.13721        1.97707
C          3.03032        3.55079        0.93004
C          2.67960        2.29424        0.47392
C          1.62091        1.61215        1.05328
C          0.90904        2.19382        2.08822
C          1.26076        3.45143        2.54639
H          0.63928       10.61720        5.43929
H          1.16447       10.66464        7.11380
H          2.31919       10.34015        5.82735
H         -1.00284        8.75493        7.87318
H         -1.56170        8.64258        6.21710
H         -1.22328        7.18476        7.12489
H          1.96844        8.44565        8.65659
H          1.55462        6.78425        8.27389
H          3.87416        8.35776        7.05360
H          4.06355        7.09514        8.27586
H          5.30631        8.13235        4.95456
H          7.74343        8.17992        4.63803
H          9.11289        6.22775        5.27974
H          8.02791        4.22445        6.22481
H          5.59564        4.17030        6.54775
H          3.30632        5.14152        8.90888
H          2.78322        2.89494        9.72743
H          2.35744        1.05592        8.14357
H          2.45271        1.48092        5.70921
H          2.95087        3.74707        4.88151
H         -0.73238        9.63614        1.70634
H         -0.76637        9.88395        3.44283
H          0.75984        9.93638        2.58531
H         -2.25801        7.27652        4.02192
H         -2.41602        7.18831        2.27959
H         -1.84366        5.79889        3.18154
H          0.17047        7.38881        0.37157
H          0.17735        5.78983        1.09358
H          2.47960        7.78614        1.17202
H          2.44544        6.29675        0.19378
H          4.67000        7.75738        1.43317
H          7.11226        7.68640        1.22727
H          8.37370        5.73261        2.05049
H          7.17406        3.85168        3.10620
H          4.72730        3.91371        3.31399
H          3.85819        4.07905        0.47579
H          3.23262        1.84459       -0.33818
H          1.35153        0.62940        0.69524
H          0.07973        1.66933        2.53988
H          0.70507        3.91292        3.35145
