79
CSD_code = TEGXIN | q = 0 | S = 0 | Stoichiometry = C34H39MoN3Si2 | MND = 5
Mo        15.59842        0.62921        3.44798
Si        17.98122        3.10684        2.65018
Si        17.98037       -1.95014        3.75106
N         14.94008        0.95950        5.01848
N         16.89631        1.75915        2.49928
N         16.89748       -0.78821        3.04867
C         14.38331        1.18885        6.22100
C         15.15997        1.49135        7.35099
H         16.23612        1.54253        7.24205
C         14.55980        1.71568        8.57273
H         15.17235        1.94700        9.43263
C         13.18199        1.64682        8.70432
H         12.71852        1.82301        9.66329
C         12.40259        1.34976        7.59560
H         11.32784        1.29443        7.69299
C         12.98691        1.12283        6.36850
H         12.39885        0.88940        5.48939
C         16.81730        0.92717        1.41579
C         16.81957       -0.47756        1.71843
C         16.75777       -1.39898        0.66861
H         16.77038       -2.45316        0.90460
C         16.68710       -0.96329       -0.63757
H         16.63696       -1.68369       -1.44046
C         16.68452        0.39787       -0.93101
H         16.63253        0.72317       -1.95941
C         16.75279        1.33346        0.07941
H         16.76171        2.39119       -0.14028
C         17.73973        3.64539        4.46511
H         17.14856        4.55203        4.53217
H         18.68971        3.84033        4.95145
H         17.22161        2.86590        5.02681
C         17.70145        4.56705        1.44770
H         18.11831        4.36448        0.46502
H         18.18967        5.45951        1.82674
H         16.64842        4.79846        1.32451
C         19.75029        2.43518        2.34424
H         20.06486        1.76682        3.14045
H         20.47245        3.24329        2.28782
H         19.80118        1.87990        1.41103
C         19.75369       -1.45813        3.21448
H         19.81455       -1.32764        2.13697
H         20.47395       -2.21935        3.49651
H         20.06317       -0.52469        3.67563
C         17.70872       -3.77573        3.25122
H         16.65618       -4.03827        3.22179
H         18.18933       -4.43366        3.96857
H         18.13693       -3.99367        2.27672
C         17.72121       -1.69303        5.62458
H         17.18811       -0.75858        5.81045
H         18.66705       -1.65529        6.15472
H         17.13909       -2.49931        6.05696
C         14.13595        1.73628        2.31480
C         13.20167        0.99192        1.69478
H         12.41491        1.40446        1.06949
C         13.20374       -0.42057        1.99487
H         12.41860       -1.05395        1.59162
C         14.13876       -0.84631        2.86416
C         14.18915        3.18125        2.14035
C         13.98903        3.79153        0.89888
H         13.81722        3.17365        0.02841
C         14.02205        5.16812        0.77556
H         13.87062        5.62507       -0.19242
C         14.24483        5.96445        1.88788
H         14.26452        7.03986        1.78934
C         14.44507        5.37212        3.12581
H         14.61360        5.99107        3.99557
C         14.42846        3.99659        3.25079
H         14.56797        3.52658        4.21799
C         14.19295       -2.23729        3.29261
C         14.42266       -2.53129        4.64011
H         14.55557       -1.70956        5.33468
C         14.43788       -3.83918        5.08424
H         14.59831       -4.05139        6.13171
C         14.24641       -4.88332        4.19178
H         14.26492       -5.90613        4.53838
C         14.03382       -4.60739        2.85025
H         13.88958       -5.41809        2.14976
C         14.00157       -3.29924        2.40414
H         13.83725       -3.08791        1.35657
