83
CSD_code = TEZTID | q = 0 | S = 0 | Stoichiometry = C33H45NPScSi2 | MND = 6
Sc         5.71095        4.18251        3.71956
P          6.64593        5.39035        1.09411
Si         3.67336        1.10369        4.11709
Si         6.03548        6.12350        6.73103
C          9.55504        3.47791        1.75684
C          8.19859        3.25959        1.48611
C          7.77567        4.62436       -1.31377
H          8.69537        4.57493       -0.74687
C          4.07189        4.62039        1.81644
H          3.96646        3.83939        1.07377
C          6.60279        5.03896       -0.68863
C          7.57592        6.96205        1.22907
C          6.91538        5.06350        5.43284
H          7.28093        4.16388        5.95978
H          7.83501        5.59309        5.13200
C          5.32403        2.02169        4.23423
H          6.08889        1.40831        3.72350
H          5.60661        1.97924        5.30027
C          5.03998        5.66889        1.77276
C          7.79981        2.10221        0.80160
C          4.72769        6.58791        2.81035
H          5.21629        7.53643        2.97580
C          7.87563        7.41243        2.51209
H          7.56406        6.81571        3.36526
C         10.49317        2.55909        1.31234
H         11.53992        2.73374        1.51772
C          8.76468        1.20471        0.37068
H          8.45690        0.31681       -0.16320
C          3.55783        6.14642        3.42603
H          2.99968        6.68394        4.17524
C          3.14955        4.94050        2.81643
H          2.21636        4.43195        3.00193
C          5.41732        5.11401       -1.40967
H          4.51605        5.44941       -0.91601
C          8.65144        8.90112        0.31053
H          8.95388        9.48261       -0.54808
C          6.57093        4.34509       -3.36808
H          6.55676        4.07058       -4.41239
C          7.96357        7.71369        0.12709
H          7.72444        7.37260       -0.87039
C         10.10671        1.43051        0.61353
H         10.84801        0.72563        0.26776
C          5.40545        4.76906       -2.74950
H          4.48551        4.82891       -3.31233
C          9.98256        4.69751        2.51386
H          9.85177        5.59329        1.90367
H         11.02925        4.62592        2.79923
H          9.37401        4.81037        3.41229
C          3.78244       -0.72023        4.70899
H          4.45664       -1.29850        4.08413
H          2.81379       -1.21054        4.68553
H          4.15347       -0.77867        5.72782
C          8.55842        8.60063        2.69058
H          8.78685        8.94836        3.68747
C          7.75555        4.27563       -2.65159
H          8.66392        3.94875       -3.13544
C          2.39006        1.97676        5.24035
H          2.63322        1.83354        6.28841
H          1.38831        1.58991        5.08196
H          2.36572        3.04778        5.05802
C          2.97955        1.02684        2.32756
H          2.75109        2.01391        1.93793
H          2.06106        0.44775        2.30069
H          3.67960        0.55162        1.64666
C          4.32744        5.32401        7.07046
H          3.88167        4.95879        6.14361
H          3.63232        6.02118        7.52666
H          4.42278        4.47480        7.73941
C          8.94921        9.34529        1.58810
H          9.48500       10.27281        1.72505
C          5.79300        7.92819        6.12301
H          6.71921        8.35045        5.74353
H          5.45546        8.56624        6.93402
H          5.05292        7.98803        5.33203
C          6.95739        6.24293        8.41071
H          7.14966        5.25571        8.82007
H          6.37958        6.79439        9.14636
H          7.91506        6.74388        8.30512
N          7.20939        4.15563        1.95418
C          6.34782        1.83441        0.54358
H          5.97206        2.48688       -0.24710
H          5.75932        2.02257        1.44896
H          6.20333        0.80308        0.22953
