54
CSD_code = TIFFET | q = 0 | S = 0 | Stoichiometry = C16H27NO5P2Si2W | MND = 6
W          5.86154        2.32981        1.87262
P          7.97805        2.33786        3.17647
P          8.40430        1.36717        5.06601
Si         9.24210        5.01523        3.79074
Si        11.04151        2.65052        2.29948
N          8.99384       -0.39975        2.87844
H          8.89760       -0.44936        1.87263
C          8.62259        0.70165        3.50657
C          9.30759       -1.64358        3.55683
H          9.44445       -1.39285        4.61521
C          8.14510       -2.62413        3.41258
H          7.23063       -2.18332        3.80210
H          8.35288       -3.53703        3.96339
H          7.99025       -2.87733        2.36542
C         10.60079       -2.21826        2.98662
H         10.47618       -2.45332        1.93129
H         10.86743       -3.13030        3.51286
H         11.41482       -1.50486        3.09230
C          9.34011        3.46913        2.64132
H          8.98715        3.81415        1.66202
C          9.76324        6.55994        2.80554
H          9.66408        7.44832        3.41991
H          9.14160        6.69919        1.92674
H         10.79389        6.50333        2.47555
C          7.43856        5.24436        4.36317
H          7.10803        4.38908        4.94953
H          6.76381        5.34639        3.51603
H          7.32143        6.12901        4.98219
C         10.34132        4.75858        5.32560
H         11.39596        4.76977        5.07156
H         10.12124        3.81208        5.81141
H         10.17156        5.54797        6.05060
C         10.80650        1.43964        0.83250
H         11.20134        0.45214        1.05097
H         11.32066        1.80215       -0.05235
H          9.75824        1.33250        0.56834
C         12.25577        4.01310        1.75193
H         13.18153        3.57173        1.39787
H         12.50464        4.68205        2.56835
H         11.84907        4.61181        0.94389
C         11.83379        1.74269        3.77797
H         11.22032        0.92775        4.14682
H         12.00818        2.41708        4.60878
H         12.79509        1.32900        3.48603
C          4.19949        2.24276        0.79171
O          3.24758        2.17707        0.16080
C          6.33699        4.07299        1.01820
O          6.63461        5.06311        0.52855
C          6.84306        1.32405        0.46571
O          7.40378        0.66799       -0.29120
C          5.48014        0.58324        2.75806
O          5.33739       -0.43156        3.26764
C          4.84872        3.24481        3.33995
O          4.22431        3.70766        4.17504
