91
CSD_code = TIWHOX | q = 0 | S = 0 | Stoichiometry = C29H56N3Si2Y | MND = 5
Y         10.37850        7.71892       12.18153
Si        12.40602        6.40775       15.07664
Si        11.59410        7.66687        8.74896
N          9.80220       10.06843       12.34396
N          8.08811        7.85266       11.26668
N          9.05502        5.19893       12.29507
C          9.21451       12.24063       11.34651
H          8.22905       12.70089       11.39314
H          9.66381       12.50743       10.39020
H          9.82920       12.64234       12.14858
C          9.10617       10.73212       11.44510
C          8.23691       10.13987       10.52446
H          7.82429       10.82927        9.80055
C          7.70990        8.84341       10.47715
C          6.58566        8.64998        9.48139
H          6.75392        7.76776        8.86494
H          6.49515        9.51212        8.82776
H          5.63670        8.51621       10.00214
C          7.29132        6.63931       11.21948
H          7.38335        6.13559       10.24506
H          6.22443        6.87256       11.35695
C          7.66254        5.65662       12.33281
H          7.50116        6.15311       13.29579
H          6.97412        4.79451       12.27007
C          9.31420        4.38679       13.48209
H          9.13467        4.97194       14.38191
H         10.35492        4.06813       13.48416
H          8.67078        3.49465       13.50709
C          9.30173        4.37566       11.11208
H         10.31328        3.97472       11.16042
H          9.21955        4.97436       10.20807
H          8.59555        3.53371       11.05297
C         10.40765       10.74119       13.42597
C          9.61444       11.09509       14.53544
C         10.23267       11.61531       15.66071
H          9.64436       11.86671       16.52905
C         11.59978       11.82467       15.69328
H         12.06320       12.23253       16.57938
C         12.36589       11.52350       14.58496
H         13.42809       11.71585       14.60835
C         11.79056       10.98179       13.44416
C          8.11791       10.86623       14.49750
H          7.78303       10.97447       13.46123
C          7.80001        9.43346       14.93781
H          8.20226        9.24474       15.93156
H          8.24115        8.72316       14.23446
H          6.72259        9.27827       14.96073
C          7.33452       11.86956       15.34422
H          6.27301       11.79009       15.11757
H          7.65578       12.88689       15.13179
H          7.46278       11.67679       16.40661
C         12.64740       10.69385       12.23037
H         12.02456       10.20650       11.46732
C         13.18610       11.99985       11.63815
H         12.36803       12.66395       11.36912
H         13.77063       11.79400       10.74370
H         13.82312       12.51527       12.35339
C         13.79915        9.74562       12.57293
H         14.48892       10.20773       13.27577
H         14.35482        9.49361       11.67127
H         13.40949        8.82815       13.01700
C         10.93941        7.44159       14.49687
H         11.08228        8.45648       14.89144
H         10.04062        7.06415       15.00373
C         13.73649        7.47101       15.95465
H         13.98130        8.35380       15.37362
H         14.65577        6.91626       16.11512
H         13.38288        7.80999       16.92318
C         13.27245        5.50801       13.61734
H         12.55278        5.01788       12.96512
H         13.96279        4.74873       13.97367
H         13.84333        6.20298       13.00846
C         11.91550        5.03900       16.33269
H         11.42046        5.46704       17.19872
H         12.78632        4.49836       16.69038
H         11.23781        4.31216       15.89595
C         11.95908        7.08502       10.50111
H         12.95524        7.45182       10.77819
H         12.04914        5.99108       10.48483
C         12.95601        7.24306        7.46299
H         13.90249        7.70014        7.73435
H         12.69830        7.59211        6.46763
H         13.11933        6.17154        7.40182
C          9.97876        6.86544        8.09867
H         10.07231        5.78660        8.01538
H          9.71905        7.24536        7.11566
H          9.15044        7.08699        8.76394
C         11.35375        9.56506        8.67961
H         10.54116        9.88021        9.32979
H         11.11252        9.89222        7.67245
H         12.25391       10.09130        8.98224
