136
CSD_code = TIZROL | q = 0 | S = 0 | Stoichiometry = C48H80N5Si2Y | MND = 4
H          9.29612       10.66134       17.28391
Y         10.33284       10.61190       12.65400
Si         8.20469        8.18072       11.37412
Si         8.63883       10.64024        9.71210
N         11.65383        9.33026       13.73255
N         11.49321       12.36831       13.01703
N          9.47892       11.16456       14.82345
N         10.24932       10.81390       16.99185
N          8.95581        9.71422       11.13062
C         13.70368        9.63683       14.96572
H         14.16858        8.77160       14.52556
H         14.29017       10.20741       15.66289
C         12.45965       10.00584       14.61414
C         11.87109       11.28670       15.21871
H         12.48237       11.52843       16.08716
C         11.98897       12.49901       14.28917
C         12.57815       13.60377       14.78449
H         12.71027       14.48955       14.18949
H         12.96335       13.64014       15.78798
C         11.93304        7.97866       13.45032
C         12.39430        7.59624       12.17620
C         12.52351        6.24931       11.87092
H         12.86659        5.95312       10.89023
C         12.24326        5.27504       12.80854
H         12.34803        4.22975       12.55751
C         11.85254        5.65055       14.07959
H         11.66879        4.88465       14.81843
C         11.68768        6.98371       14.42034
C         12.84533        8.62849       11.16414
H         12.64111        9.63765       11.56962
C         14.35978        8.50089       10.96451
H         14.88132        8.68809       11.90042
H         14.70606        9.21700       10.22354
H         14.61916        7.50201       10.62129
C         12.10886        8.50437        9.82870
H         12.28429        7.53138        9.37539
H         12.46336        9.26692        9.13644
H         11.03786        8.63435        9.97599
C         11.27160        7.33852       15.83234
H         11.01631        8.40296       15.85442
C         12.44199        7.09578       16.79048
H         12.14913        7.30821       17.81695
H         13.27957        7.73620       16.52501
H         12.76741        6.05948       16.73509
C         10.04529        6.55036       16.29974
H          9.22393        6.66330       15.59835
H          9.71884        6.91219       17.27426
H         10.27111        5.49189       16.39911
C         11.62885       13.51438       12.18966
C         10.63575       14.50936       12.17410
C         10.79477       15.61669       11.35384
H         10.03971       16.38901       11.34327
C         11.91593       15.76005       10.55997
H         12.03004       16.63276        9.93360
C         12.89618       14.78703       10.58234
H         13.77853       14.91655        9.97391
C         12.77085       13.66230       11.38394
C          9.41995       14.40533       13.06792
H          9.41835       13.40333       13.52039
C          9.51619       15.44011       14.19347
H         10.39867       15.24848       14.79907
H          8.63745       15.39630       14.83515
H          9.58834       16.44516       13.78333
C          8.11672       14.58309       12.28481
H          8.03996       15.58574       11.87113
H          7.25966       14.42931       12.93962
H          8.06166       13.86818       11.46616
C         13.87220       12.62743       11.41698
H         13.49417       11.74409       11.94897
C         15.07298       13.16348       12.20084
H         15.47379       14.05651       11.72547
H         15.85779       12.41135       12.24716
H         14.77207       13.41272       13.21522
C         14.29882       12.20504       10.01042
H         13.44439       11.84311        9.44199
H         15.04147       11.41289       10.07205
H         14.74431       13.03496        9.46767
C         10.44646       11.07860       15.68519
C          8.08087       11.12211       15.25084
H          7.88637       10.22289       15.86332
C          7.69944       12.38197       16.04715
H          8.33266       12.50172       16.92798
H          7.87051       13.25012       15.40969
C          6.23142       12.33316       16.46252
H          6.06109       11.46866       17.10976
H          5.98282       13.23002       17.03372
C          5.33097       12.23023       15.23582
H          4.28597       12.16559       15.54488
H          5.44409       13.13064       14.62821
C          5.70856       11.00737       14.40544
H          5.09134       10.96268       13.50661
H          5.51642       10.10121       14.98540
C          7.18293       11.05620       14.00988
H          7.42983       10.17449       13.41337
H          7.36582       11.94679       13.40066
C         11.22514       10.65024       18.05321
H         12.13073       10.19613       17.63908
C         10.65654        9.70798       19.11372
H         10.39648        8.75273       18.65449
H          9.74619       10.14284       19.53613
C         11.67786        9.49453       20.22778
H         11.26535        8.82146       20.98163
H         12.57194        9.02502       19.81215
C         12.05625       10.82654       20.86842
H         12.80827       10.66450       21.64223
H         11.17557       11.26344       21.34488
C         12.59387       11.79169       19.81597
H         13.51416       11.38737       19.38900
H         12.83256       12.75119       20.27769
C         11.56948       11.99588       18.70379
H         10.65865       12.43464       19.11859
H         11.95620       12.68661       17.95310
C          8.39896        7.68871       13.22002
H          9.10234        8.34093       13.74254
H          8.78428        6.67662       13.28702
H          7.45167        7.71478       13.75127
C          6.32953        8.19078       10.98965
H          5.81846        9.01373       11.47860
H          5.85351        7.26853       11.30705
H          6.16501        8.29430        9.92313
C          8.96036        6.73328       10.37417
H          9.05097        6.97812        9.32189
H          8.33524        5.84868       10.45181
H          9.94671        6.46923       10.74329
C         10.05873       11.92764        9.58622
H          9.83128       12.84156       10.12955
H         10.23580       12.21295        8.55364
H         10.99998       11.52699        9.97453
C          6.97449       11.59279        9.79532
H          6.15565       10.95265        9.48597
H          6.97715       12.46010        9.14221
H          6.75436       11.93420       10.80231
C          8.60994        9.66548        8.06883
H          9.56168        9.18739        7.86167
H          8.37846       10.31566        7.23102
H          7.85259        8.89030        8.10163
