89
CSD_code = UDOCUM | q = 0 | S = 0 | Stoichiometry = C28H51BNO4PSi2W | MND = 6
W          9.38417        1.62836        4.23582
P          7.89806        3.51061        3.43040
Si        10.68775       -1.92488        6.63882
B         10.59900        0.10601        4.88007
O          8.52794        1.35580        7.22874
N         11.39656       -0.84743        5.39556
C          8.73540        1.54201        6.10592
Si        13.10994       -0.90390        4.89163
C          8.02319        0.28675        3.69518
O          7.28652       -0.56781        3.45957
C         10.22304        1.52058        2.43718
O         10.79077        1.34162        1.44941
C         10.78437        2.84773        4.93698
O         11.63081        3.43243        5.45864
C         10.91912       -1.07178        8.32577
H         11.96321       -0.87294        8.54669
H         10.52180       -1.68172        9.13129
H         10.39371       -0.12140        8.34336
C          8.84918       -2.15956        6.22006
H          8.30432       -1.22730        6.32834
H          8.38536       -2.89122        6.87453
H          8.71134       -2.49548        5.19660
C         11.54176       -3.62580        6.59275
H         12.60583       -3.56758        6.79119
H         11.40700       -4.11526        5.63394
H         11.10495       -4.26913        7.34992
C         13.47747        0.64243        3.85356
H         12.88577        0.65586        2.94417
H         14.52400        0.68211        3.56667
H         13.25033        1.55096        4.40176
C         14.20148       -0.89173        6.45369
H         14.05906        0.02418        7.01953
H         15.25052       -0.94616        6.18008
H         13.99247       -1.72510        7.11587
C         13.37366       -2.46517        3.82912
H         12.54386       -2.61568        3.14484
H         13.47770       -3.36382        4.42702
H         14.27565       -2.36638        3.23308
C          6.94900        4.37332        4.78685
H          6.40446        5.22958        4.37350
C          7.95163        4.86975        5.82913
H          8.54429        4.02039        6.18266
H          8.64274        5.58554        5.37805
C          7.24708        5.51515        7.01810
H          6.68681        6.39283        6.68336
H          7.98859        5.84942        7.74682
C          6.29125        4.51780        7.66221
H          6.85708        3.65830        8.02693
H          5.78604        4.97619        8.51504
C          5.26542        4.05013        6.63665
H          4.67190        4.90634        6.30336
H          4.58311        3.32878        7.09148
C          5.95250        3.41072        5.43193
H          5.18935        3.11358        4.70985
H          6.48309        2.50814        5.75026
C          6.53551        2.90007        2.30186
H          6.02904        2.13682        2.90979
C          5.49480        3.91615        1.83282
H          5.06874        4.46026        2.67796
H          5.95923        4.63689        1.15698
C          4.37489        3.19530        1.08220
H          3.88254        2.48974        1.75585
H          3.62652        3.91993        0.75256
C          4.93350        2.44093       -0.12028
H          5.36238        3.15551       -0.82739
H          4.12926        1.90822       -0.63185
C          6.01315        1.45751        0.32185
H          6.43478        0.95098       -0.54892
H          5.57178        0.69628        0.96910
C          7.11922        2.18446        1.08244
H          7.59484        2.90466        0.41172
H          7.88083        1.46642        1.39900
C          8.64153        4.91213        2.42064
H          8.53721        4.57139        1.38121
C          7.98369        6.28810        2.54041
H          6.91068        6.23061        2.35422
H          8.13225        6.68746        3.54509
C          8.61543        7.25336        1.53738
H          8.45221        6.88389        0.52174
H          8.13443        8.23106        1.61747
C         10.11286        7.38665        1.79310
H         10.27364        7.81395        2.78575
H         10.55791        8.06447        1.06166
C         10.78445        6.01930        1.71613
H         11.84955        6.11324        1.93703
H         10.68827        5.62449        0.70152
C         10.13957        5.04576        2.69930
H         10.29802        5.40432        3.71909
H         10.61996        4.06765        2.61045
