71
CSD_code = UGEDUF | q = 0 | S = 0 | Stoichiometry = C26H41ClSi2Ti | MND = 12
Ti         7.02129        3.70058       -1.96916
Cl         4.79789        3.55470       -1.94297
Si         6.67300        4.25054        0.84977
Si         8.70114        6.89186       -3.31607
C          8.42387        2.45228       -0.65761
C          8.45778        1.12869       -1.18611
C          7.18746        0.55626       -1.03200
C          6.36926        1.45904       -0.32950
C          7.11139        2.63298       -0.05166
C          7.09741        5.36525       -0.64964
H          8.11207        5.77982       -0.61849
C          6.13107        6.36948       -1.05592
H          5.08866        6.15166       -0.84580
C          6.42248        7.53653       -1.64881
H          5.61783        8.21014       -1.91211
C          7.80439        7.98335       -1.99068
H          8.41682        7.98531       -1.08502
H          7.77521        9.01245       -2.34692
C          6.69564        4.86963       -3.99647
C          6.61187        3.49082       -4.29355
C          7.86820        2.89520       -4.01111
C          8.72729        3.90580       -3.51094
C          8.00351        5.14983       -3.49622
C          9.67114        3.14897       -0.16299
H          9.84337        2.87571        0.88131
H          9.60074        4.23621       -0.21740
H         10.54437        2.82986       -0.72751
C          9.68589        0.38177       -1.60856
H         10.44797        1.03734       -2.02412
H          9.45644       -0.38942       -2.34123
H         10.12023       -0.11336       -0.73632
C          6.74769       -0.80657       -1.47021
H          6.67718       -1.47984       -0.61370
H          7.44721       -1.24360       -2.17989
H          5.76285       -0.75992       -1.93615
C          4.97571        1.14738        0.10892
H          4.94410        0.15300        0.55607
H          4.28460        1.15401       -0.73635
H          4.62874        1.87246        0.83831
C          5.60853        5.85052       -4.31297
H          5.44274        5.87816       -5.39232
H          5.86761        6.84761       -3.97191
H          4.67153        5.55748       -3.83539
C          5.46604        2.78399       -4.95373
H          4.53706        3.33331       -4.81506
H          5.33769        1.78060       -4.54393
H          5.65430        2.69100       -6.02704
C          8.20996        1.49305       -4.42257
H          7.60353        0.76052       -3.88601
H          9.25934        1.26937       -4.25258
H          8.00776        1.37286       -5.48940
C         10.21917        3.78889       -3.40667
H         10.52790        2.75192       -3.29819
H         10.61410        4.36094       -2.57275
H         10.67349        4.17368       -4.32307
C          7.77608        4.55798        2.39267
H          8.79466        4.82153        2.13321
H          7.81340        3.67604        3.02301
H          7.36967        5.36876        2.98702
C          4.87461        4.46241        1.46572
H          4.71882        5.48555        1.79387
H          4.66910        3.81498        2.31228
H          4.15150        4.24791        0.68676
C         10.54681        7.00380       -2.81069
H         11.20435        6.56465       -3.55188
H         10.75634        6.53611       -1.85318
H         10.81973        8.05105       -2.72040
C          8.57466        7.74480       -5.02789
H          9.07762        8.70658       -5.01074
H          7.54795        7.91662       -5.33184
H          9.04540        7.14318       -5.79944
