128
CSD_code = UZOREI | q = 0 | S = 0 | Stoichiometry = C48H72N5Si2Y | MND = 5
Y          2.76519        8.46052       11.54764
Si         1.92184       11.83421       12.30699
Si         4.70285       11.44177       11.36456
N          0.83850        8.40637       10.08787
N          0.68461        7.37867       12.00755
N          4.37674        6.84710       10.83482
N          4.52730        7.51610       12.90734
N          3.16197       10.76403       11.75600
C          0.01567        7.78163       10.92090
C         -1.50604        7.55779       10.75987
C         -2.17957        8.29424        9.59207
H         -3.23878        8.03724        9.59769
H         -1.77556        7.99907        8.63022
H         -2.10979        9.37212        9.70504
C         -2.24361        8.08161       12.00785
H         -2.14185        9.16381       12.05858
H         -1.88449        7.67626       12.94537
H         -3.30332        7.84478       11.92316
C         -1.78352        6.06488       10.51135
H         -1.43579        5.42265       11.31145
H         -1.29833        5.75500        9.58749
H         -2.85549        5.90873       10.39856
C          0.56161        9.13913        8.87016
H         -0.27832        9.83564        8.99232
C          1.80348        9.99386        8.56309
H          1.99277       10.68198        9.38790
H          1.65472       10.56495        7.64838
H          2.66634        9.33940        8.42902
C          0.29499        8.25610        7.66401
C         -0.19502        8.81786        6.48963
H         -0.41036        9.87659        6.45325
C         -0.42464        8.03352        5.37463
H         -0.80626        8.48390        4.46971
C         -0.17518        6.67171        5.41800
H         -0.36296        6.05767        4.54932
C          0.31094        6.10395        6.58207
H          0.50217        5.04091        6.62505
C          0.55181        6.89376        7.69231
H          0.93323        6.46025        8.60418
C          0.30740        6.38444       12.99603
H         -0.76876        6.16485       13.01559
C          1.02561        5.07025       12.65105
H          0.76799        4.77621       11.63566
H          0.73162        4.26632       13.32156
H          2.10259        5.22102       12.70190
C          0.65835        6.90377       14.38240
C          1.08376        6.07252       15.41230
H          1.21079        5.01500       15.24800
C          1.34647        6.57869       16.67352
H          1.69123        5.91419       17.45209
C          1.16601        7.92372       16.94009
H          1.36350        8.31517       17.92682
C          0.72221        8.75996       15.93038
H          0.56082        9.80983       16.12703
C          0.48162        8.25696       14.66281
H          0.12817        8.92231       13.88852
C          5.11451        6.80843       11.95027
C          6.46850        6.06444       12.01649
C          6.21955        4.54614       12.00079
H          5.63263        4.26679       12.87403
H          7.17241        4.02113       12.05185
H          5.69754        4.20395       11.11529
C          7.32348        6.32166       13.26648
H          7.61978        7.36380       13.34135
H          8.23608        5.73239       13.17745
H          6.82323        6.01568       14.17836
C          7.36870        6.51498       10.84921
H          6.91739        6.41895        9.86982
H          8.28510        5.92643       10.85596
H          7.63736        7.56070       10.98502
C          4.42500        5.97294        9.67659
H          5.36244        5.40752        9.58651
C          3.29303        4.94231        9.80991
H          3.40729        4.40376       10.74843
H          3.31369        4.21834        8.99894
H          2.33396        5.45720        9.82403
C          4.31456        6.81417        8.41364
C          4.94947        8.05347        8.36889
H          5.48376        8.41249        9.23639
C          4.93246        8.82252        7.21746
H          5.44632        9.77263        7.20303
C          4.26144        8.37773        6.09158
H          4.23819        8.97987        5.19561
C          3.62699        7.14926        6.12391
H          3.10053        6.78894        5.25237
C          3.66360        6.37110        7.26807
H          3.17984        5.40830        7.24874
C          5.00575        7.89035       14.22179
H          6.03147        8.28050       14.18896
C          4.11167        9.03810       14.72206
H          4.17088        9.88163       14.03312
H          4.42965        9.36190       15.71157
H          3.07953        8.68954       14.78443
C          4.93701        6.77204       15.24603
C          4.21649        5.61240       15.00352
H          3.71455        5.50690       14.05374
C          4.15305        4.60703       15.95191
H          3.59906        3.70280       15.74266
C          4.79789        4.75598       17.16675
H          4.74929        3.97264       17.90894
C          5.51103        5.91522       17.42421
H          6.01907        6.03797       18.36979
C          5.58220        6.91317       16.47023
H          6.15578        7.80712       16.67138
C          0.17282       11.11077       12.01543
H         -0.23308       11.43652       11.06304
H         -0.51273       11.44150       12.78978
H          0.18500       10.02679       12.01492
C          1.84089       13.53451       11.42652
H          2.75019       14.10493       11.57145
H          1.01678       14.12969       11.80824
H          1.69396       13.42251       10.35663
C          2.05821       12.19389       14.18823
H          2.03649       11.27880       14.77206
H          1.24323       12.82559       14.52868
H          2.98562       12.70636       14.41733
C          6.10253       10.13826       11.45911
H          6.57160       10.13589       12.43778
H          6.87696       10.35394       10.72927
H          5.72891        9.13831       11.27027
C          5.31845       12.82789       12.53630
H          4.65992       13.68775       12.52090
H          6.30832       13.16854       12.24780
H          5.37898       12.48279       13.56394
C          4.74874       12.16134        9.58499
H          4.49347       11.41002        8.84399
H          5.73411       12.54734        9.34183
H          4.04356       12.97786        9.47970
