81
CSD_code = VABTOH | q = 0 | S = 0 | Stoichiometry = C22H54CrP2Si2 | MND = 4
Cr        -0.91367        3.91442        4.24415
P         -2.29944        5.68882        3.72555
Si        -1.15639        1.63522        6.87869
C         -0.10587        2.67384        5.70181
C         -2.90218        2.37543        7.17922
C         -0.32228        1.51035        8.60192
C         -1.42123       -0.16154        6.26967
C         -1.50823        7.37630        3.93006
C         -3.87707        5.94294        4.71022
C         -4.82658        4.78087        4.44320
C         -3.48370        5.98717        6.18220
C         -2.95421        5.82525        1.96919
C         -3.66392        7.12744        1.61018
C         -1.80290        5.54148        1.00827
H          0.79950        2.97888        6.23666
H          0.24044        2.01715        4.88102
H         -2.86890        3.24381        7.83027
H         -3.55222        1.64484        7.65173
H         -3.36773        2.67491        6.24544
H          0.64072        1.01307        8.54062
H         -0.93836        0.94513        9.29407
H         -0.15630        2.49024        9.03782
H         -0.47613       -0.68201        6.14488
H         -1.93291       -0.18098        5.31302
H         -2.01804       -0.73362        6.97438
H         -2.26628        8.13013        4.16125
H         -1.06886        7.62612        2.96140
H         -4.35524        6.88919        4.43000
H         -5.27260        4.85013        3.45357
H         -5.63309        4.76952        5.17480
H         -4.28162        3.83985        4.51386
H         -2.99094        6.92550        6.42541
H         -2.79846        5.16405        6.39356
H         -4.35978        5.89178        6.82149
H         -3.66983        4.99900        1.88006
H         -4.50575        7.31922        2.27046
H         -4.04641        7.06281        0.59203
H         -2.98475        7.97525        1.65707
H         -1.30419        4.61328        1.29472
H         -1.07558        6.35195        1.01539
H         -2.17267        5.43341       -0.01064
P          0.39339        5.66483        5.12582
C         -1.97847        2.49595        3.12581
C         -0.41915        7.35014        4.99466
C          1.97433        5.98490        4.15725
C          1.05019        5.78280        6.88804
Si        -0.91363        1.49981        1.93148
H         -2.84933        2.86640        2.56782
H         -2.40411        1.80365        3.86623
H          0.33695        8.11667        4.80045
H         -0.85993        7.54878        5.97303
C          2.94993        4.83586        4.38601
C          1.59184        6.07172        2.68407
H          2.43377        6.92993        4.46825
C          1.79428        7.06295        7.25747
C         -0.10632        5.52543        7.84938
H          1.74468        4.93886        6.97617
C          0.76893        2.38199        1.59452
C         -1.72193        1.27650        0.20761
C         -0.45544       -0.24711        2.56510
H          3.35064        4.85036        5.39692
H          3.78691        4.89922        3.69141
H          2.44459        3.88223        4.22936
H          1.05242        6.99297        2.47577
H          0.95265        5.22396        2.42221
H          2.47707        6.04930        2.04961
H          2.66448        7.22092        6.62570
H          2.14062        6.99182        8.28808
H          1.14719        7.93346        7.18432
H         -0.66219        4.64562        7.52624
H         -0.78357        6.37608        7.88714
H          0.26796        5.35225        8.85707
H          0.65489        3.24136        0.93776
H          1.47431        1.70915        1.11496
H          1.22854        2.72500        2.52139
H         -2.63006        0.68631        0.27777
H         -1.05439        0.77180       -0.48406
H         -1.98834        2.23277       -0.23275
H         -1.34384       -0.84904        2.72899
H          0.08375       -0.19895        3.50588
H          0.17145       -0.77605        1.85285
