103
CSD_code = VOGGAB | q = 0 | S = 0 | Stoichiometry = C40H57NO2Si2Ti | MND = 5
Ti         4.15719       -1.98698        4.53757
Si         3.45119       -4.95648        2.87538
Si         6.74797       -2.03107        6.48981
N          3.28057        0.20482        4.20621
O          3.17694       -1.73963        6.08193
O          0.74235        0.45549        3.17762
C          2.88219       -3.27139        3.49351
H          2.61584       -2.66993        2.61734
H          1.96522       -3.38078        4.09187
C          5.59440       -3.16775        5.52135
H          6.16385       -3.78138        4.81599
H          5.06809       -3.85304        6.19189
C          5.54989       -1.38483        3.09789
H          6.35922       -2.11014        2.93946
H          6.04663       -0.42863        3.32037
H          5.06656       -1.25603        2.11822
C          2.13505       -5.78928        1.74366
H          1.20468       -5.95890        2.27743
H          2.47608       -6.75008        1.37073
H          1.90815       -5.16560        0.88470
C          3.78373       -6.20589        4.29342
H          4.64501       -5.91538        4.88636
H          3.97670       -7.19935        3.89985
H          2.93023       -6.28144        4.96013
C          5.04075       -4.77053        1.82181
H          4.90886       -4.00994        1.05774
H          5.30215       -5.69810        1.32174
H          5.88619       -4.47422        2.43649
C          5.91992       -0.31462        6.77379
H          5.57141        0.09401        5.82208
H          6.60878        0.40230        7.21342
H          5.06429       -0.39184        7.44214
C          8.38430       -1.70755        5.54093
H          8.95113       -2.62475        5.41742
H          9.01801       -1.00305        6.07071
H          8.19407       -1.30272        4.55218
C          7.25885       -2.68714        8.22458
H          6.40506       -2.77897        8.88790
H          7.97381       -2.02440        8.70206
H          7.72259       -3.66572        8.15004
C          2.37211       -0.99320        6.76787
C          2.14659        0.35134        6.35602
C          1.33300        1.20718        7.11579
H          1.20062        2.22828        6.78325
C          0.70169        0.76056        8.24664
C          0.89870       -0.57217        8.63168
H          0.38238       -0.89422        9.52144
C          1.70574       -1.45490        7.94844
C          2.69512        0.86649        5.14356
H          2.52164        1.94113        4.99324
C         -0.18439        1.64744        9.06938
H          0.19147        1.72075       10.08928
H         -1.19409        1.24045        9.11594
H         -0.23293        2.64740        8.64595
C          3.67916        0.98390        3.10439
C          3.18367        0.75020        1.81378
C          3.64000        1.55075        0.76963
H          3.24736        1.37988       -0.22245
C          4.55665        2.56338        0.97898
H          4.89322        3.16847        0.15070
C          5.03617        2.79815        2.25640
H          5.75259        3.58612        2.43540
C          4.59047        2.02135        3.30730
H          4.97086        2.19025        4.30692
C          2.21552       -0.31943        1.50498
C          1.00651       -0.46887        2.20869
C          0.13349       -1.49283        1.85645
H         -0.79280       -1.63070        2.39116
C          0.43442       -2.34731        0.80934
H         -0.25802       -3.13527        0.55453
C          1.60734       -2.19062        0.09522
H          1.84208       -2.85123       -0.72506
C          2.48569       -1.18141        0.44712
H          3.41359       -1.06383       -0.09359
C         -0.40605        0.28873        3.97143
H         -1.32211        0.35389        3.37488
H         -0.38973        1.10453        4.69241
H         -0.38358       -0.66337        4.51238
C          1.90877       -2.88491        8.43537
C          1.07630       -3.20687        9.68548
H          1.34956       -2.53079       10.49881
H          0.01271       -3.08048        9.46879
C          1.51521       -3.88020        7.33117
H          0.45854       -3.74320        7.08214
H          2.11113       -3.69070        6.43320
C          3.38994       -3.08926        8.79052
H          4.00738       -2.86347        7.91959
H          3.66562       -2.39761        9.59217
C          1.32301       -4.64398       10.14475
H          0.71667       -4.83945       11.03757
C          1.76061       -5.31470        7.79555
H          1.47800       -6.00349        6.99062
C          3.63436       -4.52897        9.24003
H          4.69795       -4.65577        9.47258
C          0.92301       -5.61346        9.03621
H         -0.13977       -5.50112        8.80779
H          1.08823       -6.64319        9.36173
C          3.24115       -5.49428        8.12363
H          3.43164       -6.52345        8.43741
H          3.84004       -5.29711        7.23256
C          2.80030       -4.82822       10.48389
H          3.08312       -4.15414       11.29609
H          2.98119       -5.85172       10.82049
