49
CSD_code = VORCEN | q = 0 | S = 0 | Stoichiometry = C15H24FO5PSi2W | MND = 6
C          2.57890       14.25829        7.62779
H          2.72142       13.36290        7.01962
H          1.61817       14.22032        8.13861
C          2.70087       15.50216        6.81363
H          3.53015       15.52702        6.11830
C          1.89919       16.54571        6.93429
H          1.06033       16.54340        7.61152
H          2.03511       17.43737        6.34709
C          4.00312       12.64296        9.60990
H          4.60884       12.80115       10.50964
C          6.87259       11.84449        8.71205
H          7.18533       11.87688        9.75243
H          7.08851       12.81458        8.27767
H          7.49708       11.11298        8.20776
C          4.83018        9.64742        9.33095
H          3.80880        9.28647        9.29875
H          5.15649        9.62979       10.36496
H          5.44385        8.93772        8.78684
C          4.48713       11.29301        6.73716
H          4.69411       12.21904        6.21108
H          3.43104       11.06527        6.62691
H          5.03970       10.50623        6.23236
C          2.53483       11.03966       11.80828
H          3.12503       11.54788       12.56494
H          3.03860       10.11173       11.56475
H          1.58050       10.78466       12.25757
C          1.27129       11.18906        8.95584
H          1.83846       10.36211        8.54297
H          0.95446       11.81689        8.12938
H          0.37568       10.77373        9.40709
C          1.24520       13.65616       10.84430
H          0.21901       13.59910       10.49207
H          1.66832       14.59336       10.48977
H          1.20734       13.71368       11.92811
C          4.88647       17.84732       11.34700
C          6.25062       15.56245       10.29852
C          4.01068       15.22050       11.91798
C          2.51996       16.98796       10.21836
C          4.79311       17.26436        8.57723
F          5.14005       14.25344        7.79706
O          5.18620       18.75861       11.96806
O          7.31073       15.13854       10.31644
O          3.84185       14.58726       12.85650
O          1.47667       17.45666       10.22384
O          5.05856       17.83495        7.62594
P          3.92261       14.30786        8.89143
Si         5.02858       11.38165        8.56432
Si         2.26705       12.14304       10.27821
W          4.38040       16.26410       10.25981
