54
CSD_code = WAHYIN | q = 0 | S = 0 | Stoichiometry = C16H32Cl2OSi2Zr | MND = 9
Zr         3.90592        2.74119       14.55019
Cl         5.26193        4.46134       13.50605
Cl         1.68717        1.80497       14.79211
C          4.09515        1.53926       16.71988
C          3.76931        2.89260       17.00757
C          4.87746        3.70211       16.61660
C          5.87726        2.84533       16.08361
C          5.38632        1.51175       16.12471
C          3.29768        0.32069       17.08895
C          2.52689        3.34751       17.72810
C          5.04632        5.18135       16.85011
C          7.26561        3.23544       15.66348
C          6.19228        0.27347       15.83802
C          4.57308        1.14753       13.09762
Si         3.52407        1.86577       11.71661
O          2.89399        3.18101       12.64446
Si         1.89741        4.48774       12.64880
C          2.00873        5.03761       14.49259
C          0.11973        3.97070       12.20515
C          2.57916        5.83186       11.48450
C          1.99475        0.87381       11.15336
C          4.40643        2.69039       10.23953
H          2.28800        0.59263       17.38599
H          3.22662       -0.37238       16.24777
H          3.77259       -0.20331       17.92170
H          2.40608        4.42984       17.67386
H          1.63719        2.87648       17.30457
H          2.57940        3.07138       18.78391
H          5.78009        5.35531       17.64036
H          5.40403        5.68405       15.94824
H          4.11063        5.64743       17.15964
H          7.99320        2.90873       16.41014
H          7.53007        2.77649       14.70843
H          7.34833        4.31370       15.55249
H          5.54890       -0.55782       15.54970
H          6.91810        0.45012       15.04415
H          6.74427       -0.02732       16.73242
H          5.64776        1.16514       12.87736
H          4.28124        0.12686       13.37456
H          3.02447        4.84691       14.87767
H          1.80110        6.09900       14.61000
H          1.28693        4.49049       15.10129
H         -0.57830        4.77753       12.39676
H          0.03394        3.70560       11.15688
H         -0.18831        3.11203       12.79381
H          3.62486        6.03168       11.69843
H          2.50535        5.52854       10.44554
H          2.02899        6.75946       11.59443
H          1.38566        0.60761       12.01171
H          1.37390        1.44173       10.46820
H          2.28928       -0.04176       10.65395
H          5.12434        3.42305       10.59504
H          4.94051        1.95660        9.64734
H          3.70668        3.20058        9.58536
