63
CSD_code = WAJFIX | q = 0 | S = 0 | Stoichiometry = C22H36S2Si2Ti | MND = 12
Ti         8.23774        7.17046        3.75985
S          6.63773        5.88601        2.41000
Si         7.40514        6.79254        0.64294
C          8.43240        8.01063        1.64422
C          7.82145        9.00027        2.46520
C          8.79291        9.47345        3.38761
C         10.01160        8.78983        3.13281
C          9.77438        7.85485        2.08880
C          6.46987        9.59892        2.22429
H          6.23226       10.33670        2.98647
H          5.69444        8.83129        2.24727
H          6.45114       10.08360        1.24651
C          8.60336       10.63943        4.31104
H          9.42150       10.72099        5.02493
H          7.66566       10.54155        4.86120
H          8.56560       11.56653        3.73485
C         11.35987        9.27390        3.58108
H         12.10739        8.48473        3.57963
H         11.32749        9.71947        4.57207
H         11.69765       10.04621        2.88406
C         10.81657        7.08777        1.32923
H         11.80351        7.21873        1.76560
H         10.85419        7.45341        0.30139
H         10.58556        6.02349        1.28886
C          8.38106        5.54574       -0.43038
H          9.03638        6.04736       -1.13369
H          7.67424        4.95590       -1.00401
H          8.97377        4.85487        0.15972
C          6.10764        7.59201       -0.50767
H          5.24073        7.94700        0.03759
H          5.76405        6.85863       -1.22903
H          6.52547        8.42755       -1.05976
S          6.35661        8.16938        4.98194
Si         7.12804        7.38624        6.80525
C          8.41099        6.35893        5.88856
C          8.03253        5.28826        5.03012
C          9.13361        4.98677        4.18427
C         10.20165        5.85901        4.52439
C          9.73825        6.73550        5.54298
C          6.78370        4.47413        5.17430
H          6.72604        3.71391        4.39943
H          5.89653        5.10440        5.09234
H          6.77429        3.98461        6.14981
C          9.20535        3.81171        3.25570
H         10.07599        3.86945        2.60430
H          8.30719        3.75892        2.63760
H          9.27721        2.88703        3.83255
C         11.64055        5.60661        4.17957
H         12.05188        4.90468        4.91066
H         12.24363        6.51001        4.22079
H         11.75395        5.15809        3.19591
C         10.58255        7.65737        6.37295
H         10.18111        8.67050        6.38699
H         11.60796        7.68853        6.01341
H         10.60012        7.29850        7.40369
C          7.80610        8.76641        7.94290
H          8.47585        8.37124        8.69857
H          6.97169        9.23265        8.45569
H          8.32562        9.54639        7.39656
C          5.89627        6.37867        7.86067
H          6.40350        5.62415        8.45309
H          5.14610        5.88431        7.25433
H          5.37971        7.04311        8.54477
