79
CSD_code = WORCIP | q = 0 | S = 0 | Stoichiometry = C24H47Cl2NbOP2Si2 | MND = 10
Nb         2.37942        2.84370        4.30904
Cl         3.60351        0.71676        4.61748
Cl         3.15871        2.80190        1.99881
P          0.77147        1.02706        3.27521
P          4.83238        3.58643        5.00759
Si        -0.55597        3.57485        2.13806
Si         3.70454        6.46687        4.93492
O          1.41509        2.26409        7.24134
C          0.52548        4.24453        3.51622
C          1.66653        5.05562        3.34681
C          2.18616        5.42795        4.59661
C          1.34562        4.84092        5.57866
C          0.32633        4.12411        4.92179
C         -0.11988        1.72309        1.84018
C          4.90078        5.23808        5.80244
C         -0.19831        4.51000        0.51614
C         -2.39484        3.75854        2.61769
C          4.38273        7.21226        3.31645
C          3.32814        7.87061        6.17020
C         -0.55595        0.61825        4.53242
C          1.40289       -0.62688        2.66086
C          0.01565       -0.39155        5.52741
C         -1.93284        0.20426        4.02146
C          2.49588       -0.41757        1.61516
C          0.32982       -1.55887        2.10137
C          5.92245        3.75951        3.49828
C          5.77803        2.50304        6.21059
C          6.41132        2.37797        3.06449
C          7.07113        4.76284        3.55496
C          4.89433        2.20798        7.42038
C          7.12152        3.06428        6.66761
C          1.84746        2.45172        6.17844
H          2.04519        5.39425        2.39375
H          1.39531        5.04045        6.63980
H         -0.55786        3.72446        5.40025
H          0.59565        1.67723        1.01725
H         -0.97762        1.10113        1.58688
H          4.53528        5.08711        6.82070
H          5.93151        5.58256        5.86197
H          0.83272        4.37302        0.20436
H         -0.83632        4.15332       -0.28639
H         -0.37552        5.57476        0.62888
H         -2.67213        4.80686        2.61932
H         -3.03341        3.25453        1.90003
H         -2.61718        3.36072        3.60216
H          5.29763        7.77122        3.48780
H          4.58663        6.45513        2.56610
H          3.65709        7.90345        2.89809
H          4.23457        8.40277        6.43871
H          2.64220        8.58971        5.73639
H          2.87943        7.49944        7.08558
H         -0.68306        1.56808        5.06813
H          1.86673       -1.08839        3.54143
H         -0.56974       -0.39205        6.44523
H          0.00241       -1.39845        5.11724
H          1.04624       -0.13152        5.77848
H         -2.59462        0.05835        4.87500
H         -2.36681        0.97529        3.39053
H         -1.90448       -0.72551        3.46260
H          2.96094       -1.37225        1.37464
H          2.09060        0.00436        0.69725
H          3.26928        0.24743        1.99207
H         -0.34418       -1.91535        2.87459
H         -0.24910       -1.07467        1.31778
H          0.81566       -2.43007        1.66347
H          5.21464        4.10845        2.73372
H          5.94168        1.55929        5.67833
H          5.58944        1.66181        3.08306
H          6.79569        2.42339        2.04700
H          7.20549        2.01698        3.71480
H          7.82378        4.48582        4.28761
H          7.55481        4.78756        2.57897
H          6.71913        5.76578        3.77706
H          4.62618        3.12030        7.95083
H          3.98514        1.69963        7.10623
H          5.42359        1.55723        8.11403
H          7.57168        2.37039        7.37639
H          7.81370        3.18182        5.83952
H          7.00333        4.02136        7.17038
