129
CSD_code = WUPHIA | q = 0 | S = 0 | Stoichiometry = C51H68ClN2P4RhSi2 | MND = 5
Rh         5.62653        3.33229        4.16719
Cl         4.91622        1.10872        3.84179
P          7.02323        3.18859        2.42040
P          5.79347        5.42924        3.23916
P          6.61850        4.80704        5.62517
P          4.24928        3.58561        5.91674
Si         8.49834        6.83571        4.63648
Si         5.38703        7.82887        4.87806
N          7.03029        4.86040        2.07099
N          5.17492        4.79489        6.69114
C          6.62914        6.38455        4.61795
C          9.61765        5.49498        3.87357
H          9.43167        5.33090        2.81975
H          9.45272        4.54784        4.37985
H         10.66536        5.75625        3.99279
C          8.88180        8.56389        3.90948
H          9.92557        8.61309        3.61717
H          8.72286        9.32707        4.66279
H          8.28686        8.82849        3.04552
C          9.15679        6.93428        6.43450
H         10.22378        7.13472        6.41056
H          9.01651        5.99997        6.97064
H          8.69944        7.73081        7.01124
C          5.11969        8.78771        3.24077
H          4.73627        8.14732        2.45189
H          6.02280        9.26951        2.88332
H          4.38598        9.57111        3.40502
C          5.98112        9.16473        6.11622
H          5.14416        9.54081        6.69538
H          6.39757       10.00707        5.57533
H          6.73404        8.81901        6.81241
C          3.62707        7.23625        5.30527
H          2.92202        8.06182        5.26772
H          3.55824        6.78348        6.28641
H          3.30349        6.49110        4.58366
C          6.41042        2.25070        0.98123
C          7.15970        1.35264        0.23339
H          8.20775        1.20261        0.44974
C          6.55655        0.63239       -0.78446
H          7.14390       -0.06429       -1.36534
C          5.20723        0.78943       -1.04937
H          4.74223        0.21872       -1.83988
C          4.44738        1.66089       -0.28373
H          3.38836        1.76430       -0.47013
C          5.04595        2.38037        0.73044
H          4.45801        3.03929        1.36254
C          8.71238        2.53665        2.70227
C          9.80435        2.55298        1.84103
H          9.73560        3.01950        0.87157
C         10.99946        1.96694        2.22045
H         11.84181        1.98924        1.54352
C         11.12053        1.35015        3.45438
H         12.05715        0.89498        3.74140
C         10.03568        1.31529        4.31406
H         10.12023        0.82942        5.27511
C          8.84320        1.90415        3.93786
H          7.98364        1.87636        4.60303
C          4.04126        2.14771        7.02020
C          5.17370        1.35212        7.17939
H          6.09202        1.64240        6.67835
C          5.12010        0.19986        7.93745
H          6.00122       -0.41409        8.05374
C          3.92600       -0.17615        8.53363
H          3.87738       -1.08026        9.12275
C          2.79041        0.59488        8.35514
H          1.85462        0.29059        8.80172
C          2.84086        1.75074        7.59380
H          1.94328        2.33279        7.43978
C          2.53136        4.12804        5.58276
C          2.16143        3.93215        4.25275
H          2.89488        3.52429        3.56189
C          0.88698        4.24027        3.81561
H          0.61627        4.08235        2.78177
C         -0.04070        4.75161        4.70749
H         -1.03811        4.99765        4.37360
C          0.31326        4.94289        6.03271
H         -0.41037        5.33534        6.73303
C          1.58787        4.63028        6.47239
H          1.83543        4.78184        7.51080
C          7.14074        5.56258        0.78582
C          8.20291        4.93186       -0.10887
H          7.93675        3.89314       -0.31905
H          9.16377        4.95891        0.40941
C          5.80200        5.57361        0.03913
H          5.50430        4.54885       -0.18698
H          5.04053        6.01397        0.69075
C          7.55345        7.00423        1.07691
H          8.51208        7.00364        1.59512
H          6.80817        7.44536        1.73948
C          7.66734        7.80185       -0.22021
H          7.96340        8.83065        0.01467
C          6.32359        7.80839       -0.94461
H          5.56480        8.28001       -0.31652
H          6.40013        8.38456       -1.86944
C          5.91920        6.36957       -1.25716
H          4.95198        6.36343       -1.77218
C          6.97413        5.71303       -2.14584
H          7.06218        6.25740       -3.08869
H          6.67808        4.68661       -2.37589
C          8.31604        5.71737       -1.41696
H          9.07666        5.24552       -2.04989
C          8.72650        7.15763       -1.11345
H          9.69628        7.17213       -0.61075
H          8.82313        7.72004       -2.04469
C          5.38025        5.06095        8.12080
C          4.06928        4.99774        8.89825
H          3.63314        4.00046        8.80492
H          3.37633        5.73311        8.48379
C          6.37505        4.07041        8.73634
H          5.97513        3.05854        8.65953
H          7.30866        4.11190        8.16618
C          5.94802        6.47272        8.25257
H          5.24040        7.18337        7.82725
H          6.87115        6.52549        7.67447
C          6.20664        6.81199        9.71869
H          6.61285        7.82759        9.78639
C          7.20428        5.82033       10.31200
H          8.15233        5.87914        9.77315
H          7.39680        6.06472       11.35906
C          6.63015        4.40975       10.20168
H          7.34237        3.68935       10.61948
C          5.31008        4.32275       10.96552
H          5.47267        4.54443       12.02262
H          4.90554        3.31030       10.89195
C          4.32105        5.32330       10.37177
H          3.37117        5.26407       10.91581
C          4.89070        6.73614       10.49150
H          4.17990        7.46139       10.08874
H          5.05943        6.98039       11.54255
