52
CSD_code = WUYTEP | q = 0 | S = 0 | Stoichiometry = C18H28Cl2OSi2Ti | MND = 12
Ti         3.58342       -0.00370        3.77100
Si         4.96942        0.74106        6.91648
Si         4.91957       -2.28205        6.23572
Cl         2.32835        0.63245        2.05928
Cl         1.79314       -0.39157        5.02901
O          5.42462       -0.83512        6.82523
C          4.41417        1.36905        5.22769
C          3.26538        2.20205        5.03746
H          2.46325        2.32504        5.75242
C          3.38584        2.89493        3.83854
H          2.66111        3.59288        3.45277
C          4.59673        2.52767        3.21734
C          5.23093        1.58635        4.05783
H          6.27663        1.31141        3.98862
C          4.57691       -1.95274        4.41522
C          3.47083       -2.37003        3.62799
H          2.63906       -2.96413        3.98484
C          3.69070       -1.98716        2.29507
H          3.04921       -2.21221        1.45298
C          4.93039       -1.32071        2.23072
H          5.42079       -0.99991        1.32219
C          5.48334       -1.30966        3.52723
H          6.49795       -1.03209        3.78337
C          5.17079        3.09432        1.94088
C          5.62821        1.95205        1.02507
H          6.40364        1.35527        1.50268
H          6.03071        2.35417        0.09725
H          4.77572        1.31510        0.78733
C          4.12735        3.92908        1.19445
H          3.83381        4.79687        1.77975
H          3.24560        3.32738        0.98594
H          4.53777        4.27997        0.24984
C          6.37282        3.98222        2.30022
H          6.06439        4.77964        2.97234
H          6.79143        4.42880        1.40095
H          7.14990        3.40225        2.79240
C          3.53339        0.89396        8.15433
H          3.76508        0.37349        9.07818
H          2.62474        0.45787        7.74744
H          3.32589        1.92949        8.40270
C          6.54727        1.65420        7.46967
H          6.86439        1.30666        8.44660
H          6.37622        2.72301        7.53568
H          7.37088        1.49150        6.78174
C          3.36904       -2.89342        7.14674
H          3.51198       -2.84691        8.22177
H          3.13653       -3.92201        6.89066
H          2.50441       -2.28357        6.89919
C          6.41445       -3.44217        6.43919
H          6.65924       -3.56486        7.48837
H          7.29691       -3.05643        5.93912
H          6.20380       -4.42434        6.03056
