68
CSD_code = XUKVOQ | q = 0 | S = 0 | Stoichiometry = C26H34N5ScSi2 | MND = 5
Sc         3.58764        8.21766        9.10468
Si         2.31777        9.61791       12.04915
Si         4.62148        6.96766        6.01908
N          0.37829        8.16250        7.61499
N          1.86184        6.90677        9.02737
C          6.03574        6.06869       12.22336
H          6.96635        6.32977       12.70093
N          2.66249        4.97718       10.21060
C          0.23275        5.77957        7.81059
C          4.07232        5.24972        6.69586
H          4.29789        5.16143        7.75867
H          4.57359        4.43169        6.18819
H          3.00307        5.09841        6.57207
C          5.15006        8.05375        7.46963
H          5.43222        9.04513        7.07943
H          6.07810        7.62714        7.88693
C          2.58700       10.94066        7.72788
H          3.65651       11.09970        7.82206
C         -0.79260        5.41369        6.96278
H         -1.30366        6.15135        6.36493
C          4.05204        4.76708       12.08217
H          3.37600        4.00119       12.42562
C          0.56715        3.49679        8.54093
H          1.09205        2.77456        9.14553
N          4.50669        6.44319       10.41074
C          0.85466        7.07503        8.11934
C          0.38065       11.74824        7.33811
H         -0.31283       12.55471        7.14809
C          1.92350        5.57760        9.34147
C          2.38239       10.86116       13.51366
H          3.26784       10.70448       14.12242
H          1.51804       10.76527       14.16396
H          2.41033       11.88633       13.15678
N          2.18134        9.67471        7.87117
C          0.90402        4.83406        8.58804
C          0.86830        9.41855        7.68793
C          5.20043        5.08796       12.75799
H          5.46465        4.58005       13.67379
C          3.13833        7.75312        5.08672
H          2.87344        7.17770        4.20479
H          3.36671        8.76365        4.76064
H          2.25735        7.80492        5.72140
C         -0.05685       10.45268        7.43339
H         -1.09419       10.18517        7.31631
C          3.76489        9.68450       10.84143
H          4.69270        9.50540       11.40895
H          3.85057       10.71731       10.46608
C         -0.46461        3.12695        7.68732
H         -0.75460        2.08834        7.62301
C         -1.13116        4.06718        6.91256
H         -1.92737        3.74365        6.25821
C          1.74634       12.00018        7.46583
H          2.14055       12.99830        7.36373
C          5.64440        6.70288       11.06499
H          6.27640        7.46262       10.61639
C          3.72498        5.45289       10.89304
C          2.19279        7.86245       12.81800
H          3.13481        7.55609       13.26547
H          1.93263        7.12909       12.05723
H          1.43312        7.81414       13.59219
C          0.67283        9.94731       11.11362
H         -0.17237       10.00615       11.79252
H          0.46847        9.14705       10.40459
H          0.71063       10.88069       10.55803
C          5.97679        6.64078        4.69438
H          6.84447        6.15458        5.13067
H          6.31612        7.56823        4.24314
H          5.61264        6.00294        3.89443
