72
CSD_code = XUTJOM | q = 0 | S = 0 | Stoichiometry = C22H37N2O7PSi2W | MND = 6
W          3.64984        9.08744        9.47791
P          2.26825        7.03487        9.51537
Si         1.69435        6.09802       12.34292
Si         2.55612        3.98901        9.96295
N          0.60465        7.04017        9.50413
N         -1.31443        8.28665        9.24398
C          4.86608       10.65050        9.45596
C          2.81369        9.88929        7.84444
C          4.85417        7.97820        8.33913
C          4.54998        8.42132       11.12835
C          2.36669       10.21694       10.50076
C          2.66119        5.74695       10.72821
H          3.71819        5.91063       10.95701
C          0.00528        5.20681       12.33176
H          0.11497        4.14537       12.52275
H         -0.48826        5.32006       11.37403
H         -0.64913        5.60698       13.10009
C          2.75834        5.49058       13.80497
H          3.70145        6.02524       13.85888
H          2.98282        4.43315       13.73017
H          2.23924        5.64985       14.74385
C          1.37388        7.95545       12.63801
H          0.90166        8.12109       13.60257
H          0.72330        8.37237       11.87599
H          2.30019        8.52375       12.62944
C          0.90636        3.69901        9.04451
H          1.05342        3.09898        8.15148
H          0.46277        4.64227        8.74586
H          0.19275        3.17676        9.67396
C          4.10598        3.65341        8.88488
H          4.89688        3.20986        9.48311
H          4.50255        4.55904        8.43876
H          3.88475        2.95753        8.08077
C          2.67447        2.68620       11.35587
H          1.84338        2.73123       12.04897
H          3.58885        2.79676       11.92831
H          2.68424        1.69256       10.92119
C          2.28305        6.65030        6.98373
C          0.00182        8.15933        9.28718
H          0.55187        9.09233        9.10885
C         -2.20226        7.19130        9.56448
H         -1.61733        6.27180        9.56099
H         -2.97553        7.13082        8.79109
C         -2.84433        7.43762       10.93015
H         -2.06230        7.44220       11.69137
H         -3.54053        6.63020       11.15873
C         -3.56739        8.78294       10.92818
H         -4.39408        8.75232       10.21426
H         -3.98524        8.98415       11.91553
C         -2.59898        9.89661       10.53523
H         -1.81260        9.98282       11.28788
H         -3.11943       10.85288       10.47565
C         -1.96073        9.57576        9.18180
H         -2.73431        9.54165        8.40649
H         -1.22744       10.33625        8.90833
C          2.61981        5.77974        5.79502
H          3.18994        4.91868        6.15314
C          1.30520        5.30471        5.17135
H          0.73121        4.72051        5.88700
H          1.50929        4.68811        4.29932
H          0.71153        6.16260        4.86445
C          3.44570        6.59016        4.79729
H          3.62864        6.00546        3.89914
H          4.40239        6.87039        5.23138
H          2.91042        7.49737        4.52728
O          5.56791       11.55576        9.43976
O          2.41245       10.50436        6.97085
O          5.45429        7.30748        7.63024
O          5.10522        8.08972       12.07454
O          1.63591       10.94960       10.99844
O          2.55928        6.08865        8.15251
O          1.78625        7.74849        6.91511
