55
CSD_code = YILCAX | q = 0 | S = 0 | Stoichiometry = C18H30CrO3SSi2 | MND = 8
Cr        14.73300        1.71913        5.48529
S         14.06503       -0.63176        5.74420
C         14.14649        0.05109        4.12345
C         15.43907        0.44904        3.83359
C         16.37366        0.31772        4.90379
C         15.74457       -0.14679        6.04942
C         16.34039       -0.55272        7.35537
Si        12.67284       -0.06717        2.95250
C         12.77296        1.45155        1.80785
C         11.09559       -0.04635        4.01758
C         12.82735       -1.73069        1.99217
C         11.74701       -1.83313        0.91917
C         14.20813       -1.91285        1.36341
Si        18.19511        0.80246        4.69492
C         18.30128        2.01275        3.22584
C         18.84467        1.70850        6.24266
C         19.19924       -0.79807        4.29886
C         18.75661       -1.42987        2.97918
C         19.12065       -1.83921        5.41364
C         15.40791        3.32864        4.99909
O         15.79394        4.39837        4.76689
C         14.94696        2.52063        7.10225
O         15.11966        3.10329        8.08841
C         13.18976        2.67966        5.38205
O         12.26068        3.36794        5.31640
H         15.72780        0.76308        2.84078
H         15.65890       -0.31756        8.17371
H         17.27749       -0.03051        7.52488
H         16.53305       -1.62833        7.38069
H         13.60952        1.39093        1.11823
H         11.86886        1.54983        1.21623
H         12.88967        2.36256        2.38888
H         10.20203       -0.08146        3.40327
H         11.05823       -0.89013        4.70128
H         11.04871        0.86204        4.61074
H         12.67374       -2.55743        2.69516
H         11.80634       -2.79096        0.40424
H         10.75641       -1.74347        1.35717
H         11.86740       -1.04416        0.18086
H         14.26869       -2.86862        0.84494
H         14.40741       -1.12534        0.64010
H         14.98911       -1.88885        2.12067
H         19.32347        2.34992        3.08546
H         17.97608        1.57257        2.28869
H         17.68957        2.89025        3.41077
H         19.23954        1.03761        6.99901
H         19.64852        2.38253        5.96537
H         18.06024        2.30930        6.69556
H         20.24887       -0.50727        4.19148
H         19.34506       -2.32124        2.76636
H         17.70897       -1.72262        3.02474
H         18.88373       -0.73594        2.15277
H         19.76152       -2.69007        5.18626
H         19.43928       -1.42164        6.36526
H         18.10233       -2.20662        5.51947
