63
CSD_code = YORHOE | q = 0 | S = 0 | Stoichiometry = C22H30NO6PSi2W | MND = 6
W         -1.60576      -10.93799        4.97760
P         -1.07326       -8.88864        3.72861
Si        -2.41806       -6.13390        3.06084
Si        -0.33769       -6.59156        5.62599
O         -0.12485       -9.51741        0.88833
O         -2.48233      -13.55615        6.45520
O         -4.52938      -10.10412        4.20934
O         -1.59057      -12.37577        2.18971
O          1.42576      -11.64569        5.38944
O         -1.98005       -9.29316        7.62289
N         -1.92994       -9.02429        2.30596
C         -1.41668       -9.30632        1.17427
C          0.81953       -9.60527        1.95204
H          0.70417      -10.59948        2.41883
C          0.59812       -8.53556        3.01824
H          0.59292       -7.54110        2.56600
H          1.38719       -8.59836        3.76525
C         -2.29613       -9.42080        0.00171
C         -3.65238       -9.68146        0.18930
H         -4.02415       -9.80818        1.19377
C         -4.49196       -9.79171       -0.90200
H         -5.54114       -9.99916       -0.75387
C         -3.98899       -9.64066       -2.18502
H         -4.64731       -9.72652       -3.03681
C         -2.64053       -9.38532       -2.37573
H         -2.24860       -9.27079       -3.37556
C         -1.79288       -9.27904       -1.28899
H         -0.74140       -9.08123       -1.42936
C          2.19961       -9.50875        1.31296
H          2.33903       -8.52266        0.87587
H          2.29513      -10.25446        0.52828
H          2.96666       -9.68066        2.06229
C         -1.64534       -7.29320        4.39513
H         -2.49531       -7.58957        5.02116
C         -4.05611       -6.85442        2.39674
H         -4.42454       -7.65241        3.03411
H         -3.93112       -7.27100        1.40185
H         -4.82669       -6.08993        2.34337
C         -1.24779       -5.73158        1.60459
H         -1.04409       -6.60830        0.99809
H         -0.30054       -5.31439        1.93191
H         -1.71670       -4.99703        0.95674
C         -2.85967       -4.48500        3.91679
H         -1.99737       -3.97656        4.33178
H         -3.57177       -4.63778        4.72051
H         -3.32058       -3.81388        3.20009
C         -1.29733       -5.74232        7.03724
H         -1.90761       -6.45450        7.58417
H         -1.95176       -4.95886        6.67297
H         -0.60877       -5.29228        7.74487
C          0.81579       -5.32497        4.77739
H          0.26040       -4.54436        4.27024
H          1.47998       -5.78483        4.05254
H          1.43874       -4.84602        5.52620
C          0.78829       -7.92431        6.41079
H          1.83881       -7.72594        6.21704
H          0.56191       -8.92018        6.03743
H          0.66116       -7.95152        7.48890
C         -2.15697      -12.59811        5.92217
C         -3.48419      -10.43200        4.53423
C         -1.55215      -11.89069        3.22516
C          0.31424      -11.38811        5.28783
C         -1.78788       -9.90915        6.67837
