72
CSD_code = YUNQAA | q = 0 | S = 0 | Stoichiometry = C26H35N2O5PSi2W | MND = 6
C          0.01270        2.38636        5.67842
C          0.67449        1.35511        4.02242
C         -2.28082        1.03162        4.12664
H         -3.18999        1.64437        4.10811
C         -0.16731        3.13286        6.89211
C         -1.34996        3.84964        7.08274
H         -2.12377        3.78222        6.32990
C         -1.52036        4.62043        8.21401
H         -2.43301        5.17976        8.35435
C         -0.51476        4.67590        9.16836
H         -0.64687        5.28115       10.05283
C          0.65987        3.95899        8.99091
H          1.43774        4.00760        9.73830
C          0.84006        3.18980        7.85895
H          1.74923        2.63293        7.69358
C          2.57594        0.17684        3.30848
H          2.92352        0.31618        4.34279
C          3.48553        0.96267        2.35593
H          3.08175        0.87973        1.34487
H          3.47138        2.01755        2.63873
C          4.90859        0.41925        2.39956
H          5.53434        0.98347        1.70516
H          5.31706        0.55283        3.40406
C          4.92817       -1.06214        2.03698
H          5.94931       -1.44552        2.08877
H          4.57296       -1.18927        1.01192
C          4.02861       -1.84769        2.98565
H          4.41637       -1.76538        4.00387
H          4.02756       -2.90490        2.71196
C          2.60280       -1.30884        2.94370
H          2.18700       -1.42668        1.94095
H          1.97354       -1.86578        3.64231
C         -0.73216       -0.97558        6.04754
H         -0.06038       -0.34744        6.62517
H         -0.21522       -1.24587        5.13327
H         -0.89799       -1.88502        6.61690
C         -2.90131        0.92850        7.22997
H         -3.63531        1.68981        6.98229
H         -2.06162        1.42311        7.70693
H         -3.35335        0.27456        7.96968
C         -3.79821       -1.33198        5.41999
H         -3.67015       -1.93576        4.52949
H         -4.75159       -0.82016        5.33443
H         -3.87060       -2.00650        6.26698
C         -4.03769       -0.01394        1.84296
H         -4.47021        0.96244        1.64687
H         -4.65569       -0.50460        2.58715
H         -4.10825       -0.58952        0.92653
C         -1.40066       -1.59083        2.54615
H         -1.79077       -2.19404        3.35700
H         -0.33088       -1.48175        2.68906
H         -1.55066       -2.14353        1.62437
C         -1.20300        1.03732        1.07524
H         -1.13235        0.43127        0.17606
H         -0.19159        1.20303        1.43809
H         -1.62822        1.99355        0.78721
C         -1.26012        6.25453        2.17191
C          0.31403        3.93349        1.74898
C          0.26524        5.09804        4.26050
C         -2.61793        5.04860        4.22660
C         -2.68679        3.87867        1.86128
N          1.09339        1.76334        5.30722
N          1.23786        0.67873        3.13183
O         -1.32580        7.29677        1.70653
O          1.19772        3.69049        1.07071
O          1.04924        5.49747        4.98944
O         -3.50095        5.44930        4.83621
O         -3.66138        3.63737        1.31150
P         -0.94203        2.25541        4.08894
Si        -2.37903       -0.08578        5.69635
Si        -2.21737        0.12525        2.40035
W         -1.15707        4.45719        3.00799
