66
CSD_code = ZIHXET | q = 0 | S = 0 | Stoichiometry = C23H37N3Si2W | MND = 5
W          1.05015        2.20181        7.41895
Si         1.25409        0.48757        5.05205
Si         3.11967        4.33142        8.90680
N          1.41069        1.31804        8.96505
N          1.78723        2.07869        5.53882
N          2.63824        3.51459        7.44704
C          2.45662        0.59429        9.38199
C          2.58186        0.01726       10.66046
C          3.71211       -0.69411       11.00498
C          4.75336       -0.85869       10.10453
C          4.65660       -0.29606        8.83723
C          3.53575        0.41468        8.47517
C          2.96483        2.73509        5.24418
C          3.67868        2.64523        4.05856
C          4.85330        3.36524        3.90227
C          5.31618        4.16548        4.93008
C          4.61759        4.25928        6.12610
C          3.43724        3.55232        6.30703
C         -0.76514        3.37892        7.87687
C         -1.11880        4.36871        6.74241
C          0.03536        5.36520        6.55945
C         -2.40267        5.14342        7.07446
C         -1.32388        3.60100        5.42871
C          0.03761        0.45529        6.52247
C          2.63252       -0.84685        5.12099
C          0.49906        0.43769        3.28841
C          4.67422        3.54538        9.70685
C          3.43438        6.20920        8.61828
C          1.68821        4.24172       10.17555
H          1.77345        0.14603       11.36604
H          3.78603       -1.12797       11.99252
H          5.63285       -1.41799       10.38470
H          5.46802       -0.41728        8.13279
H          3.43917        0.88044        7.48305
H          3.30353        2.01095        3.26856
H          5.40560        3.29386        2.97696
H          6.23433        4.72142        4.81036
H          5.00066        4.87585        6.92257
H         -0.74040        3.97126        8.80984
H         -1.64184        2.70480        7.99893
H          0.21549        5.91997        7.47948
H         -0.19748        6.08109        5.77229
H          0.95646        4.83715        6.28220
H         -2.28005        5.71373        7.99282
H         -3.23881        4.46002        7.20689
H         -2.65420        5.83740        6.27483
H         -2.13868        2.88432        5.52439
H         -0.40784        3.06487        5.15413
H         -1.57484        4.28823        4.62176
H         -0.99958        0.56838        6.18060
H          0.08224       -0.49437        7.07185
H          2.35220       -1.72522        4.54951
H          2.83110       -1.16250        6.14207
H          3.56135       -0.46614        4.70573
H         -0.01905       -0.50202        3.13047
H          1.26617        0.51889        2.52537
H         -0.21426        1.23946        3.12395
H          5.05453        4.16716       10.51142
H          5.47517        3.41068        8.98603
H          4.44502        2.56781       10.12190
H          4.49316        6.44115        8.66102
H          2.94798        6.80602        9.38306
H          3.06776        6.54493        7.65284
H          1.20190        3.26508       10.16809
H          0.93773        5.00957       10.01220
H          2.09119        4.40122       11.17023
