87
CSD_code = ZOWLOO | q = 0 | S = 0 | Stoichiometry = C36H44FeN4Si2 | MND = 4
Fe        15.34548       10.52110        4.78257
Si        14.10753       12.08904        2.27764
N         15.86867        8.20034        6.50217
N         14.13439        9.36373        7.11723
C         15.05316        9.23766        6.11028
C         13.68356       10.90954        3.67688
H         13.00173       10.13193        3.34449
H         13.13201       11.49849        4.42279
C         15.62914       13.09025        2.88972
H         15.31912       14.01444        3.36724
H         16.31267       13.35588        2.08897
H         16.18461       12.51156        3.63180
C         12.72356       13.36046        1.89154
H         11.84061       12.87021        1.49270
H         13.04749       14.09649        1.16120
H         12.42184       13.89808        2.78552
C         14.49216       11.22566        0.60998
H         15.55278       11.05911        0.45914
H         14.13551       11.82101       -0.22486
H         14.00421       10.25814        0.55026
C         15.48301        7.70690        7.72678
C         15.97763        6.67970        8.50966
H         16.82611        6.09273        8.19252
C         15.33876        6.44029        9.71726
H         15.69996        5.65055       10.35866
C         14.24443        7.19542       10.11973
H         13.77587        6.98018       11.06830
C         13.73940        8.21959        9.33270
H         12.89005        8.80072        9.65634
C         14.37321        8.46624        8.12679
C         12.98949       10.22564        7.09965
H         12.81987       10.54315        6.07472
H         13.13843       11.10182        7.73405
H         12.11561        9.67618        7.45416
C         16.71178        7.44620        5.65773
C         18.09370        7.49160        5.73136
H         18.57270        8.15301        6.43600
C         18.85019        6.68622        4.89589
H         19.92802        6.73049        4.94237
C         18.23165        5.82318        4.00793
H         18.82531        5.20091        3.35533
C         16.84940        5.74669        3.95980
H         16.36191        5.06543        3.27799
C         16.08499        6.54693        4.79268
N         14.82229        8.20042        3.06289
N         16.55665        9.36375        2.44792
C         15.63782        9.23771        3.45483
C         15.20799        7.70698        1.83829
C         14.71336        6.67980        1.05540
H         13.86484        6.09286        1.37249
C         15.35226        6.44037       -0.15219
H         14.99105        5.65064       -0.79360
C         16.44664        7.19546       -0.55461
H         16.91522        6.98020       -1.50316
C         16.95167        8.21960        0.23245
H         17.80106        8.80070       -0.09117
C         16.31784        8.46629        1.43834
C         17.70147       10.22576        2.46552
H         17.87118       10.54315        3.49050
H         17.55236       11.10203        1.83128
H         18.57534        9.67644        2.11078
C         13.97912        7.44633        3.90730
C         12.59719        7.49186        3.83372
H         12.11820        8.15335        3.12916
C         11.84067        6.68649        4.66917
H         10.76284        6.73089        4.62276
C         12.45916        5.82329        5.55701
H         11.86547        5.20099        6.20955
C         13.84141        5.74667        5.60508
H         14.32886        5.06530        6.28681
C         14.60585        6.54696        4.77228
Si        16.58356       12.08901        7.28741
C         17.00750       10.90957        5.88808
H         17.68939       10.13198        6.22039
H         17.55888       11.49840        5.14192
C         15.06179       13.09005        6.67548
H         15.37165       14.01387        6.19711
H         14.37875       13.35633        7.47644
H         14.50581       12.51091        5.93412
C         17.96729       13.36074        7.67336
H         18.85034       12.87069        8.07223
H         17.64323       14.09675        8.40367
H         18.26891       13.89837        6.77936
C         16.19913       11.22570        8.95515
H         15.13854       11.05904        9.10605
H         16.55578       11.82114        9.78993
H         16.68720       10.25824        9.01488
