115
CSD_code = AYUBEB | q = 0 | S = 0 | Stoichiometry = C31H75N2Si6Y | MND = 5
Y          0.00002        0.00009       13.96112
Si        -1.06837       -3.27450       12.75642
Si        -2.96677       -2.07362       15.01798
N         -0.00000        0.00015       16.67151
N          0.00003        0.00004       11.32785
C          0.00001        0.00007       17.81697
C         -0.00002        0.00002       19.25925
C         -0.63356       -1.31508       19.73322
H         -0.66051       -1.33549       20.82019
H         -0.05511       -2.16703       19.38261
H         -1.64954       -1.40943       19.35585
C          0.00001        0.00003       10.18226
C         -0.00002       -0.00000        8.74137
C          0.53622       -1.35724        8.26638
H          1.55349       -1.51213        8.61879
H          0.53436       -1.38902        7.17926
H         -0.08668       -2.16578        8.64187
C         -1.24802       -2.10536       14.22566
H         -0.60627       -2.54013       15.00741
C          0.77581       -3.32850       12.21178
H          0.88217       -3.58788       11.16228
H          1.32346       -4.07335       12.78016
H          1.26642       -2.36891       12.37247
C         -2.08932       -2.78515       11.20523
H         -3.13333       -3.04343       11.33387
H         -1.73306       -3.31091       10.32346
H         -2.03630       -1.72067       11.00477
C         -1.54503       -5.10412       13.09439
H         -2.60041       -5.19187       13.32993
H         -0.99100       -5.49976       13.93985
H         -1.34357       -5.74669       12.24218
C         -4.44510       -2.40271       13.85006
H         -5.38915       -2.28570       14.37368
H         -4.41269       -3.41151       13.45439
H         -4.45000       -1.71766       13.01055
C         -3.08744       -3.41064       16.39684
H         -2.32705       -3.25598       17.15691
H         -2.93405       -4.40201       15.98436
H         -4.05322       -3.40713       16.89317
C         -3.39465       -0.42283       15.90443
H         -3.64371        0.35429       15.18917
H         -2.56888       -0.06653       16.51369
H         -4.25343       -0.54707       16.55876
C          1.45562        0.10888       19.73332
H          1.48669        0.09569       20.82030
H          1.90423        1.03584       19.38281
H          2.04536       -0.72378       19.35595
C         -0.82216        1.20619       19.73333
H         -0.82635        1.23964       20.82031
H         -1.84920        1.13124       19.38274
H         -0.39588        2.13327       19.35605
C          0.90723        1.14300        8.26631
H          0.53275        2.10144        8.61872
H          0.93563        1.15726        7.17919
H          1.91892        1.00784        8.64176
C         -1.44355        0.21419        8.26637
H         -2.08632       -0.58933        8.61883
H         -1.47015        0.23163        7.17926
H         -1.83232        1.15792        8.64182
C          2.44735       -0.02819       14.22564
Si         3.37002        0.71199       12.75641
C          2.49471        2.33605       12.21174
H          2.66638        2.55809       11.16237
H          2.86566        3.18275       12.78022
H          1.41837        2.28118       12.37208
C          3.45676       -0.41689       11.20525
H          4.20244       -1.19189       11.33390
H          3.73396        0.15451       10.32348
H          2.50839       -0.90321       11.00479
C          5.19284        1.21397       13.09445
H          5.79654        0.34387       13.33003
H          5.25842        1.89161       13.93989
H          5.64862        1.70971       12.24224
Si         3.27919       -1.53250       15.01808
C          4.30338       -2.64823       13.85019
H          4.67406       -3.52431       14.37381
H          5.16083       -2.11576       13.45453
H          3.71257       -2.99498       13.01066
C          4.49738       -0.96844       16.39694
H          3.98319       -0.38725       17.15697
H          5.27924       -0.33990       15.98449
H          4.97722       -1.80658       16.89330
C          2.06344       -2.72845       15.90447
H          1.51501       -3.33274       15.18920
H          1.34196       -2.19145       16.51367
H          2.60040       -3.41003       16.55885
H          2.50289        0.74499       15.00736
C         -1.19930        2.13353       14.22572
Si        -2.30161        2.56252       12.75647
C         -3.27048        0.99243       12.21182
H         -3.54830        1.03002       11.16232
H         -4.18937        0.89057       12.78021
H         -2.68476        0.08775       12.37250
C         -1.36737        3.20203       11.20526
H         -1.06914        4.23534       11.33387
H         -2.00080        3.15629       10.32347
H         -0.47196        2.62394       11.00486
C         -3.64778        3.89012       13.09448
H         -3.19607        4.84796       13.33008
H         -4.26746        3.60810       13.93991
H         -4.30497        4.03700       12.24226
Si        -0.31236        3.60613       15.01797
C          0.14171        5.05098       13.85006
H          0.71510        5.81005       14.37366
H         -0.74816        5.52730       13.45443
H          0.73740        4.71269       13.01052
C         -1.40983        4.37908       16.39693
H         -1.65604        3.64321       17.15699
H         -2.34511        4.74192       15.98452
H         -0.92389        5.21371       16.89326
C          1.33127        3.15131       15.90433
H          2.12875        2.97845       15.18900
H          1.22702        2.25802       16.51360
H          1.65311        3.95717       16.55862
H         -1.89667        1.79514       15.00748
