141
CSD_code = DEGXIX | q = 0 | S = 0 | Stoichiometry = C45H85ClHfN2OSi6 | MND = 5
Hf         6.16823        4.58414        4.00515
Cl         5.25050        5.56485        2.09095
N          7.13828        2.76140        3.00200
C          6.36149        1.72874        3.06703
C          5.09019        1.82712        3.72412
H          4.49320        0.91292        3.71115
C          4.67012        2.95271        4.35252
N          6.91615        4.96920        5.67366
C          6.73469        0.38349        2.50941
H          6.04732        0.11481        1.70768
H          6.64084       -0.37100        3.28940
H          7.75229        0.37654        2.12505
C          3.32083        2.88337        5.00855
H          2.89679        1.87536        4.96175
H          2.62687        3.56642        4.51653
H          3.38996        3.18221        6.05376
C          8.40944        2.70816        2.40944
C          8.57364        2.82174        1.02493
C          9.86144        2.85277        0.50859
H          9.99278        2.94999       -0.56018
C         10.97842        2.75914        1.32633
C         10.79094        2.62213        2.69642
H         11.65234        2.53601        3.34408
C          9.52286        2.59219        3.25207
C          7.37871        2.90327        0.11979
H          6.98020        1.90614       -0.07236
H          7.64973        3.34542       -0.83666
H          6.58255        3.49562        0.57114
C         12.36081        2.78045        0.74607
H         13.04884        3.30729        1.40404
H         12.36663        3.26104       -0.22942
H         12.73054        1.76198        0.62326
C          9.29871        2.43551        4.72508
H          8.60105        3.20264        5.08430
H         10.23580        2.50708        5.27167
H          8.84986        1.46416        4.93728
C          6.76858        5.72287        6.76567
C          7.02987        5.16594        8.04829
C          6.83965        5.91344        9.18759
H          7.00453        5.44086       10.14540
C          6.43448        7.24194        9.13999
C          6.22835        7.80815        7.88757
H          5.92861        8.84206        7.82855
C          6.38187        7.09357        6.71268
C          7.46979        3.73352        8.10503
H          7.56688        3.44027        7.05057
C          6.23925        8.01099       10.41542
H          6.37220        7.28867       11.22932
C          6.16144        7.74351        5.36959
H          6.49386        7.00607        4.60579
Si         9.23639        3.60493        8.82002
Si         6.05418        2.62217        8.75587
Si         7.67582        9.26042       10.66788
Si         4.43002        8.62185       10.61257
Si         7.24421        9.30932        5.14888
Si         4.28139        7.95695        5.04616
C         10.33988        4.81107        7.82602
H          9.94571        5.81973        7.89794
H         10.36299        4.55234        6.77268
H         11.36298        4.82814        8.18982
C          9.87489        1.81650        8.58343
H         10.94251        1.75260        8.76842
H          9.69206        1.45545        7.57744
H          9.38550        1.13223        9.26818
C          9.43653        4.04423       10.66858
H          9.27544        5.10277       10.84163
H         10.43997        3.80637       11.01064
H          8.74088        3.49441       11.29306
C          5.90443        1.15807        7.53329
H          5.05944        0.51688        7.76390
H          6.79764        0.54153        7.55157
H          5.77810        1.52824        6.51866
C          6.32384        1.92771       10.51570
H          5.51710        1.25539       10.79077
H          6.35142        2.72082       11.25538
H          7.25251        1.37253       10.59022
C          4.41701        3.60464        8.76419
H          4.34868        4.21920        7.87175
H          4.37017        4.27628        9.61490
H          3.54499        2.95793        8.80295
C          9.31078        8.28382       10.49987
H          9.29332        7.65859        9.61249
H          9.47354        7.63260       11.35332
H         10.17018        8.94311       10.42455
C          7.58164       10.00094       12.42768
H          7.43284        9.23329       13.17992
H          6.76444       10.70933       12.51445
H          8.49698       10.52894       12.67609
C          7.73367       10.71515        9.43661
H          8.55080       11.38680        9.68482
H          6.81930       11.29752        9.45421
H          7.89110       10.36938        8.42196
C          4.08413       10.34270        9.85972
H          4.42560       10.42121        8.83419
H          4.57432       11.12232       10.43442
H          3.01929       10.55645        9.86458
C          3.26186        7.31731        9.84494
H          3.10201        6.49077       10.53092
H          3.68305        6.90369        8.93430
H          2.28767        7.73379        9.60650
C          4.01224        8.74326       12.47497
H          2.97435        9.02493       12.62369
H          4.62604        9.48375       12.97568
H          4.16762        7.79504       12.97993
C          8.91275        9.07289        6.05681
H          9.40358       10.02506        6.23650
H          9.60685        8.45080        5.50117
H          8.75286        8.59599        7.01882
C          6.43616       10.92355        5.77871
H          5.53893       11.15820        5.21464
H          7.12179       11.75786        5.66032
H          6.16351       10.87748        6.82624
C          7.54739        9.61930        3.28146
H          6.86836       10.37499        2.90122
H          7.38404        8.72233        2.69491
H          8.55561        9.97196        3.08533
C          3.95905        8.73577        3.33290
H          4.38739        8.13663        2.53673
H          4.37766        9.73376        3.25909
H          2.89305        8.81406        3.14216
C          3.55773        6.19172        5.12192
H          3.45517        5.78113        4.11954
H          2.57643        6.16333        5.58778
H          4.22413        5.54962        5.70304
C          3.35317        9.00557        6.33889
H          2.28989        9.01719        6.11798
H          3.69227       10.03446        6.33939
H          3.47756        8.61289        7.34045
O          8.20301        5.60148        3.03587
C          8.42613        6.09681        1.70670
H          8.14925        5.32349        0.98966
H          7.78461        6.97086        1.54247
C          9.90023        6.47461        1.62401
H         10.49808        5.59930        1.36667
H         10.08016        7.25928        0.89334
C         10.18217        6.90980        3.05838
H          9.81234        7.92046        3.22422
H         11.23684        6.86519        3.31916
C          9.35651        5.89669        3.84257
H          9.93004        4.97320        3.97852
H          9.00507        6.25361        4.81352
