147
CSD_code = GOYCII | q = 0 | S = 0 | Stoichiometry = C72H60FeO8Si6 | MND = 4
Fe        18.37578       12.30718       17.84599
Si        21.21071       11.80130       16.74730
Si        19.46386        9.81127       15.25597
Si        17.14757       11.74473       15.00519
Si        18.84556       15.04159       19.56973
Si        17.45862       14.15151       22.10241
Si        18.11096       11.32623       21.03688
O         20.10119       11.81657       17.88516
O         20.71153       10.78735       15.53857
O         18.24614       10.65129       14.53029
O         17.43503       12.04266       16.59977
O         18.75959       13.96381       18.39874
O         17.64170       14.91359       20.67620
O         17.89186       12.59121       22.05109
O         18.17186       11.70617       19.49695
C         22.75742       11.02367       17.52300
C         23.50246       11.73867       18.45612
H         23.19785       12.74045       18.71581
C         24.61774       11.18185       19.05641
H         25.18003       11.75179       19.78208
C         25.01187        9.89446       18.73003
H         25.88000        9.45562       19.20072
C         24.28713        9.17224       17.79679
H         24.59038        8.16836       17.53527
C         23.17182        9.73481       17.20031
H         22.61096        9.17107       16.46878
C         21.54596       13.47414       15.92894
C         21.75161       13.61639       14.55841
H         21.71418       12.73847       13.93099
C         21.99379       14.85810       13.99834
H         22.14812       14.94960       12.93266
C         22.03740       15.98469       14.80334
H         22.22967       16.95526       14.36801
C         21.83046       15.86341       16.16789
H         21.85268       16.73848       16.80152
C         21.58855       14.61875       16.72238
H         21.41025       14.53042       17.78318
C         18.74103        9.03596       16.82147
C         17.36905        8.81567       16.93346
H         16.72585        9.05470       16.09872
C         16.81584        8.28532       18.08402
H         15.74909        8.12704       18.14671
C         17.63010        7.95326       19.15313
H         17.20029        7.54183       20.05398
C         18.99636        8.14944       19.05756
H         19.63746        7.88708       19.88581
C         19.54306        8.68405       17.90397
H         20.61010        8.83071       17.83801
C         20.02571        8.58215       13.94247
C         21.35823        8.48904       13.55398
H         22.07862        9.15375       14.00585
C         21.76239        7.57370       12.59847
H         22.80169        7.51844       12.30779
C         20.83502        6.72817       12.01375
H         21.14742        6.01181       11.26772
C         19.50397        6.80595       12.38921
H         18.77640        6.14865       11.93483
C         19.10796        7.72269       13.34580
H         18.07008        7.78335       13.63725
C         17.45357       13.36282       14.07870
C         18.30439       14.32026       14.62667
H         18.73998       14.13637       15.60150
C         18.58862       15.48996       13.94469
H         19.25748       16.21643       14.38021
C         18.02263       15.72281       12.70246
H         18.24509       16.63482       12.16803
C         17.16704       14.78539       12.14803
H         16.71904       14.96604       11.18172
C         16.88580       13.61639       12.83213
H         16.21724       12.88726       12.39898
C         15.41874       10.99259       14.87619
C         14.48745       11.14335       15.90214
H         14.76871       11.70215       16.78327
C         13.22775       10.57969       15.80749
H         12.51885       10.70420       16.61313
C         12.87420        9.85660       14.68035
H         11.89110        9.41564       14.60478
C         13.78713        9.69795       13.65078
H         13.51589        9.13245       12.77130
C         15.04618       10.26256       13.74945
H         15.76322       10.13072       12.95298
C         20.49478       14.90709       20.50047
C         21.11551       13.66372       20.59019
H         20.69418       12.83754       20.03852
C         22.25083       13.48543       21.36115
H         22.70386       12.50663       21.42852
C         22.79648       14.55813       22.04593
H         23.68202       14.42344       22.65063
C         22.20512       15.80676       21.95117
H         22.63047       16.64791       22.47956
C         21.06348       15.97587       21.18859
H         20.60249       16.95078       21.12466
C         18.59744       16.75770       18.81373
C         18.25847       17.83320       19.62710
H         18.09193       17.65780       20.67920
C         18.12639       19.10811       19.10611
H         17.86258       19.93329       19.75260
C         18.33359       19.32891       17.75453
H         18.23215       20.32403       17.34549
C         18.66928       18.26761       16.93109
H         18.82856       18.43445       15.87488
C         18.80106       16.99619       17.46103
H         19.06478       16.16472       16.82817
C         18.65229       14.93456       23.34685
C         18.55688       16.28351       23.67731
H         17.74365       16.86674       23.27093
C         19.48112       16.88684       24.51052
H         19.39090       17.93714       24.74987
C         20.52438       16.14480       25.03783
H         21.24980       16.61394       25.68716
C         20.63200       14.80002       24.72836
H         21.44391       14.21496       25.13596
C         19.70548       14.20433       23.89217
H         19.79819       13.15837       23.64317
C         15.61436       14.26288       22.49484
C         14.90895       13.12663       22.88270
H         15.43371       12.18594       22.95080
C         13.55637       13.18449       23.16628
H         13.02808       12.28744       23.45660
C         12.88082       14.39002       23.07773
H         11.82489       14.44001       23.30239
C         13.56578       15.53183       22.69676
H         13.04257       16.47485       22.62393
C         14.91705       15.46478       22.40794
H         15.44325       16.35473       22.09722
C         16.51489       10.29816       21.15719
C         15.54071       10.44950       20.17518
H         15.75553       11.10287       19.33961
C         14.33463        9.77747       20.25165
H         13.58993        9.90926       19.47898
C         14.08071        8.93271       21.31972
H         13.13974        8.40501       21.38437
C         15.04040        8.76550       22.30340
H         14.84815        8.10560       23.13774
C         16.24492        9.44384       22.21996
H         16.98914        9.30846       22.99062
C         19.71054       10.54242       21.68253
C         19.90702       10.29871       23.03940
H         19.11766       10.53900       23.73682
C         21.09831        9.77199       23.50743
H         21.23238        9.59429       24.56528
C         22.12059        9.47553       22.62136
H         23.05188        9.06488       22.98530
C         21.94561        9.71540       21.26831
H         22.74131        9.49659       20.57015
C         20.75236       10.24458       20.80791
H         20.61961       10.44902       19.75757
