105
CSD_code = IZUQUP | q = 0 | S = 0 | Stoichiometry = C33H63ILaNSi6 | MND = 12
La        -1.43002        9.47078        4.64081
I         -0.07741       10.55251        7.06215
Si        -0.62643        6.37376        7.25312
Si         1.63116        7.64047        2.13881
Si        -3.21176        5.75841        4.41869
Si        -3.26108        9.74365        0.60220
Si         0.45986       12.74275        3.68037
Si        -3.21359       13.32352        4.99955
N         -3.73741        9.45308        5.94269
C         -0.65866        6.98711        5.47241
C          0.49885        7.47595        4.83221
H          1.45335        7.62133        5.31852
C          0.27155        7.63335        3.43918
C         -1.07789        7.24495        3.22435
H         -1.52382        7.10024        2.25104
C         -1.67597        6.84138        4.45366
C         -1.95227        7.21658        8.35413
H         -2.84527        7.47665        7.79349
H         -1.56301        8.12252        8.80741
H         -2.25500        6.55725        9.16158
C         -0.86944        4.47861        7.32534
H         -1.88105        4.17960        7.07748
H         -0.65379        4.11089        8.32346
H         -0.19819        3.97410        6.63829
C          1.08720        6.71619        8.02316
H          1.11501        6.37031        9.05188
H          1.33025        7.77310        8.03158
H          1.87283        6.19610        7.48431
C          3.32377        7.74086        3.01471
H          3.42628        8.64792        3.60170
H          4.13146        7.72911        2.28974
H          3.47102        6.89787        3.68170
C          1.50059        5.97939        1.19845
H          2.32671        5.85317        0.50558
H          0.58058        5.91962        0.62503
H          1.51196        5.13810        1.88417
C          1.58564        9.02150        0.81291
H          1.78574       10.00393        1.22884
H          0.63360        9.06163        0.29197
H          2.34961        8.82731        0.06556
C         -2.72153        3.95876        4.00071
H         -3.59799        3.32561        3.89802
H         -2.08959        3.52733        4.76874
H         -2.17031        3.91532        3.06629
C         -4.29926        5.73231        5.99251
H         -5.15463        5.08230        5.83410
H         -4.68303        6.71376        6.25405
H         -3.75755        5.35330        6.84999
C         -4.33798        6.37376        2.98580
H         -5.38572        6.37193        3.27234
H         -4.24529        5.72316        2.12195
H         -4.08091        7.37742        2.65676
C         -2.56195       10.38570        2.22253
C         -1.21881       10.82440        2.39638
H         -0.41303       10.60587        1.70985
C         -1.14832       11.78120        3.44332
C         -2.48895       11.93788        3.95676
C         -3.31762       11.08068        3.20109
H         -4.39458       11.04928        3.27760
C         -2.88501       11.07693       -0.71724
H         -3.35203       10.84022       -1.66863
H         -1.81683       11.16794       -0.88920
H         -3.24614       12.05151       -0.40382
C         -5.16036        9.56176        0.73377
H         -5.57469        9.25996       -0.22289
H         -5.62287       10.50518        1.00512
H         -5.46688        8.82075        1.46502
C         -2.53547        8.10335       -0.06736
H         -2.76083        8.01508       -1.12624
H         -2.94995        7.22714        0.42061
H         -1.45508        8.06526        0.03501
C          0.78780       13.67567        2.04180
H          1.74850       14.17963        2.06472
H          0.02610       14.42675        1.86076
H          0.78698       13.00293        1.19050
C          1.85662       11.43751        3.92019
H          2.36899       11.58183        4.86664
H          2.60522       11.51130        3.13683
H          1.47027       10.41467        3.90717
C          0.60452       14.01022        5.09726
H          1.50877       14.59496        4.95763
H          0.67726       13.53146        6.06703
H         -0.22986       14.70003        5.12449
C         -2.60636       13.48402        6.80441
H         -2.97378       14.41068        7.23584
H         -1.52683       13.49533        6.88499
H         -2.97239       12.67241        7.42630
C         -2.97066       14.97604        4.06704
H         -3.61782       15.02410        3.19659
H         -1.95127       15.09616        3.71762
H         -3.20841       15.82468        4.70062
C         -5.10663       13.04430        5.13101
H         -5.58356       13.07524        4.15718
H         -5.56161       13.81963        5.73879
H         -5.34985       12.09013        5.58883
C         -4.87247        9.12172        5.32072
H         -4.77666        8.73096        4.31692
C         -6.12500        9.24909        5.89629
H         -7.00403        8.96713        5.33896
C         -6.22164        9.73954        7.18887
H         -7.18226        9.85395        7.66758
C         -5.05133       10.07839        7.84751
H         -5.06770       10.46170        8.85487
C         -3.84309        9.92085        7.18961
H         -2.91985       10.17788        7.69155
