82
CSD_code = KAXMEB | q = 0 | S = 0 | Stoichiometry = C18H54MnN3Si6 | MND = 3
Mn         8.04102        4.64216        2.10902
Si        10.93528        4.07537        3.27687
N          9.69658        3.68784        2.11004
C         10.12534        5.23787        4.56402
C         12.41417        4.97760        2.46034
C         11.64389        2.55928        4.20251
H         10.78577        6.05403        4.83639
H          9.86141        4.71571        5.47771
H          9.21582        5.67065        4.14105
H         12.96329        5.56404        3.19077
H         12.08322        5.64798        1.67469
H         13.11219        4.27351        2.02097
H         12.27083        2.87968        5.02865
H         12.25619        1.95213        3.54506
H         10.86264        1.92453        4.60643
N          8.04094        6.55262        2.10905
N          6.38548        3.68786        2.10786
Si         9.97951        2.42094        0.94350
Si         7.08629        7.43147        3.27639
Si         8.99565        7.43146        0.94175
Si         6.10250        2.42102        3.27448
Si         5.14680        4.07535        0.94099
C          8.56795        2.54256       -0.34387
C          9.93598        0.68895        1.75963
C         11.64705        2.56387        0.01812
C          6.48800        6.14853        4.56485
C          5.56337        8.25855        2.46131
C          8.04484        8.80498        4.19946
C          9.59390        6.14849       -0.34674
C         10.51860        8.25848        1.75685
C          8.03715        8.80503        0.01871
C          7.51393        2.54281        4.56188
C          6.14619        0.68899        2.45845
C          4.43488        2.56395        4.19970
C          5.95680        5.23778       -0.34622
C          3.66791        4.97766        1.75744
C          4.43819        2.55919        0.01545
H          8.18576        1.56330       -0.61119
H          8.89064        3.02587       -1.26009
H          7.74155        3.12058        0.07648
H          9.70482       -0.07974        1.02842
H          9.18786        0.63999        2.54327
H         10.89367        0.43674        2.20149
H         11.68275        1.86041       -0.80776
H         12.47868        2.33682        0.67585
H         11.80693        3.55759       -0.38608
H          5.45009        6.30870        4.83586
H          7.07101        6.18442        5.47910
H          6.57217        5.14416        4.14338
H          4.78248        8.44209        3.19309
H          5.14689        7.63467        1.67805
H          5.82262        9.21423        2.01917
H          7.45438        9.18836        5.02564
H          8.26327        9.63814        3.54072
H          8.98582        8.44699        4.60295
H         10.63198        6.30834       -0.61734
H          9.01117        6.18481       -1.26118
H          9.50917        5.14407        0.07457
H         11.29944        8.44213        1.02504
H         10.93514        7.63451        2.54000
H         10.25935        9.21410        2.19911
H          8.62763        9.18841       -0.80746
H          7.81877        9.63818        0.67747
H          7.09616        8.44709       -0.38478
H          7.89607        1.56369        4.82956
H          7.19137        3.02634        5.47796
H          8.34044        3.12059        4.14158
H          6.37726       -0.07965        3.18974
H          6.89443        0.64002        1.67492
H          5.18857        0.43672        2.01646
H          4.39912        1.86051        5.02559
H          3.60331        2.33686        3.54190
H          4.27493        3.55767        4.60386
H          5.29636        6.05399       -0.61854
H          6.22066        4.71551       -1.25991
H          6.86638        5.67047        0.07681
H          3.11884        5.56409        1.02697
H          3.99886        5.64805        2.54309
H          2.96984        4.27361        2.19680
H          3.81123        2.87953       -0.81068
H          3.82592        1.95207        0.67296
H          5.21945        1.92443       -0.38843
