86
CSD_code = KIHRAU | q = 0 | S = 0 | Stoichiometry = C19H57N3Si6Zr | MND = 4
Zr        -0.00000        0.00002       -0.12263
C          0.00007       -0.00008        2.14278
N         -0.61219        2.01254       -0.47004
Si         0.11650        2.97706       -1.69009
Si        -1.78096        2.64479        0.62422
C          0.95996        4.58162       -1.05984
C          1.42062        1.84604       -2.51600
C         -1.02656        3.59605       -3.10925
C         -0.98596        3.43802        2.18729
C         -2.91410        4.02286       -0.07879
C         -2.96578        1.20822        1.10439
H          0.80249        0.61756        2.56145
H          1.57043        4.41037       -0.18078
H          0.21027        5.32014       -0.79530
H          1.59429        5.02147       -1.82283
H          2.23538        1.61748       -1.83490
H          1.84700        2.32014       -3.39513
H          0.97209        0.90370       -2.83707
H         -0.45365        4.16692       -3.83407
H         -1.80413        4.24808       -2.72899
H         -1.51255        2.78669       -3.64309
H         -0.27199        2.77743        2.66810
H         -1.74037        3.70336        2.92133
H         -0.45995        4.34904        1.92064
H         -3.64781        4.33592        0.65701
H         -3.45515        3.69022       -0.95841
H         -2.33768        4.89766       -0.35736
H         -3.92394        1.32478        0.60655
H         -3.17010        1.19488        2.17101
H         -2.54409        0.24204        0.81584
N         -1.43681       -1.53646       -0.47015
N          2.04904       -0.47609       -0.47013
H         -0.93604        0.38613        2.56132
H          0.13365       -1.00380        2.56153
Si        -2.63646       -1.38764       -1.69018
Si        -1.40008       -2.86467        0.62424
Si         2.52003       -1.58940       -1.69018
Si         3.18097        0.21994        0.62416
C         -4.44780       -1.45944       -1.05997
C         -2.30895        0.30732       -2.51593
C         -2.60100       -2.68705       -3.10936
C         -2.48444       -2.57281        2.18738
C         -2.02707       -4.53499       -0.07873
C          0.43641       -3.17253        1.10453
C          3.48787       -3.12216       -1.05994
C          0.88840       -2.15333       -2.51588
C          3.62762       -0.90896       -3.10935
C          3.47046       -0.86514        2.18724
C          4.94100        0.51217       -0.07883
C          2.52925        1.96425        1.10445
H         -4.60470       -0.84520       -0.18087
H         -4.71265       -2.47794       -0.79554
H         -5.14583       -1.12987       -1.82294
H         -2.51841        1.12716       -1.83478
H         -2.93268        0.43960       -3.39508
H         -1.26858        0.39003       -2.83696
H         -3.38183       -2.47617       -3.83423
H         -2.77704       -3.68652       -2.72910
H         -1.65698       -2.70326       -3.64314
H         -2.26941       -1.62419        2.66821
H         -2.33691       -3.35885        2.92139
H         -3.53642       -2.57290        1.92076
H         -1.93113       -5.32702        0.65695
H         -1.46872       -4.83713       -0.95854
H         -3.07296       -4.47316       -0.35701
H          0.81450       -4.06064        0.60674
H          0.55007       -3.34280        2.17117
H          1.06242       -2.32431        0.81600
H          3.03434       -3.56521       -0.18087
H          4.50229       -2.84215       -0.79541
H          3.55163       -3.89145       -1.82294
H          0.28309       -2.74458       -1.83470
H          1.08567       -2.75968       -3.39499
H          0.29660       -1.29369       -2.83696
H          3.83547       -1.69058       -3.83426
H          4.58116       -0.56164       -2.72904
H          3.16964       -0.08329       -3.64310
H          2.54142       -1.15322        2.66810
H          4.07744       -0.34436        2.92123
H          3.99651       -1.77614        1.92062
H          5.57889        0.99131        0.65688
H          4.92345        1.14681       -0.95862
H          5.41048       -0.42447       -0.35711
H          3.10930        2.73576        0.60665
H          2.61989        2.14780        2.17109
H          1.48166        2.08221        0.81592
