82
CSD_code = POWVAY | q = 1 | S = 0 | Stoichiometry = C18H54HfN3Si6(1+) | MND = 9
Hf         1.37428       -0.55812       13.98114
C          2.25401       -2.01700       11.40157
C          5.18853       -0.97899       11.23161
C          2.92052        0.71709        9.97587
C          2.73478        1.95223       15.18402
C          5.59757        0.89003       14.40375
C          4.17501        2.99041       12.62224
C          0.13887       -3.39822       14.08016
C         -1.71977       -3.19839       11.58532
C         -2.77653       -2.22407       14.32970
C          0.15718        1.88486       12.53019
C         -0.82172        0.08816       10.13119
C         -2.80349        0.92092       12.36256
C          3.64124       -2.50876       14.77872
C          4.19557       -0.92593       17.44988
C          0.92050        0.39672       18.57492
C          2.47659       -3.50422       17.49688
C         -0.66502        0.71573       15.90749
C         -0.87571       -1.93274       17.60787
Si         3.36834       -0.44917       11.41748
Si         3.90692        1.46974       13.73774
Si        -1.22962       -2.35486       13.22141
Si        -0.99660        0.44041       11.99777
Si         2.92165       -1.95904       16.47580
Si         0.27700       -0.52422       17.03655
N          2.99094        0.20606       12.97942
N         -0.40384       -0.84423       13.00232
N          1.53684       -1.04722       15.96415
H          1.25055       -1.78952       11.77630
H          2.14246       -2.39873       10.39110
H          2.69411       -2.82529       11.98462
H          5.83399       -0.10983       11.17556
H          5.33151       -1.54515       10.31762
H          5.53680       -1.59273       12.05604
H          3.66851        1.49618        9.87630
H          2.89566        0.17831        9.03423
H          1.95944        1.20330       10.10526
H          3.26555        2.54013       15.92697
H          1.90907        2.57342       14.83823
H          2.34709        1.06194       15.68978
H          5.54628       -0.06175       14.92201
H          6.01279        1.61980       15.09135
H          6.30670        0.78006       13.59045
H          4.57844        3.81856       13.19471
H          4.88665        2.76637       11.83568
H          3.26083        3.33318       12.14836
H          0.87116       -3.76444       13.36158
H         -0.28897       -4.27810       14.55130
H          0.64032       -2.82030       14.86342
H         -0.90342       -3.24347       10.87172
H         -2.53807       -2.66694       11.11281
H         -2.05621       -4.21393       11.76380
H         -3.59749       -1.77708       13.78005
H         -3.10665       -3.20679       14.65014
H         -2.61456       -1.62347       15.21820
H          1.19492        1.54602       12.62229
H          0.14124        2.67975       11.79058
H         -0.17147        2.33472       13.46605
H          0.13117       -0.36012        9.87068
H         -1.60137       -0.58959        9.80080
H         -0.92787        1.00057        9.55342
H         -3.06720        1.83814       11.84739
H         -3.48067        0.14986       12.01292
H         -2.99639        1.07101       13.41986
H          3.64634       -1.67722       14.06602
H          3.08702       -3.35030       14.36447
H          4.66740       -2.84657       14.88844
H          3.86413       -0.78640       18.47311
H          5.15414       -1.43270       17.49305
H          4.35987        0.05828       17.02430
H          0.10120        0.85489       19.11810
H          1.41015       -0.29249       19.25347
H          1.63259        1.17897       18.33331
H          2.10842       -3.22036       18.47633
H          3.35093       -4.12743       17.64973
H          1.71452       -4.11696       17.02620
H         -0.84386        0.28726       14.91659
H         -1.63404        0.96193       16.33122
H         -0.12592        1.65803       15.81358
H         -1.11503       -2.63433       16.81571
H         -1.80944       -1.53725       17.99447
H         -0.41245       -2.49522       18.41141
