104
CSD_code = QEDZEE | q = 0 | S = 0 | Stoichiometry = C33H58O5SeSi6W | MND = 6
W          8.94785        0.39990       13.07748
Se         8.04981        2.07214       14.92637
Si         5.67494        4.28935       16.49861
Si         7.07052        6.40108       11.55587
Si         4.77408        4.03407       11.46496
Si        10.28291        1.28309       17.82489
Si        12.85086        4.34477       14.34418
Si        11.04656        6.36553       16.22680
O         10.38654        2.72548       11.54017
O          7.43647       -2.00147       14.41816
O         11.49904       -0.38699       14.71566
O          6.30801        0.63770       11.40751
O         10.00462       -1.57518       10.90075
C          9.86466        1.89900       12.13949
C          7.99539       -1.10885       13.97440
C         10.57975       -0.01021       14.15034
C          7.27460        0.63344       12.01973
C          9.61897       -0.84841       11.70062
C          7.18633        3.79087       12.70773
H          7.77308        3.29687       11.95378
C          7.14677        3.50113       14.03080
C          6.22814        4.39237       14.70038
C          5.72493        5.21843       13.74799
H          5.01187        6.00388       13.91513
C          6.25136        4.88611       12.41427
C         10.12013        4.11070       14.81038
H          9.70860        4.57723       13.93574
C          9.63090        3.01927       15.44358
C         10.45436        2.69636       16.58655
C         11.44035        3.62864       16.61945
H         12.22866        3.67235       17.34785
C         11.32226        4.59091       15.51027
C          7.00627        3.67690       17.71927
H          8.00998        3.89795       17.37205
H          6.93887        2.60067       17.84440
H          6.88176        4.13345       18.69695
C          4.20276        3.06916       16.57122
H          4.48673        2.09900       16.17261
H          3.35748        3.42801       15.99198
H          3.86179        2.91973       17.59121
C          5.09695        6.02850       17.03605
H          5.90284        6.75314       16.98169
H          4.73630        6.01348       18.05938
H          4.28622        6.38831       16.41156
C          5.95617        7.93788       11.73296
H          4.96503        7.77990       11.32427
H          6.39393        8.78204       11.20928
H          5.84292        8.22456       12.77348
C          7.43818        6.06795        9.71648
H          6.53394        6.06175        9.11749
H          7.93815        5.11612        9.57150
H          8.08825        6.84011        9.31668
C          8.71307        6.76818       12.45265
H          8.58498        6.75354       13.53097
H          9.09259        7.74799       12.17705
H          9.47573        6.04016       12.19415
C          3.43722        5.33335       11.06442
H          3.16513        5.91992       11.93518
H          2.53810        4.83971       10.71063
H          3.75824        6.01686       10.28571
C          5.37716        3.24957        9.83530
H          5.34097        3.95328        9.01052
H          4.74414        2.40856        9.57095
H          6.39225        2.87493        9.90472
C          4.02169        2.72486       12.62703
H          3.35866        3.17878       13.35693
H          4.79169        2.19360       13.17865
H          3.44941        1.98799       12.07227
C         11.97414        0.40508       17.96309
H         12.75769        1.10604       18.23403
H         12.26354       -0.06577       17.02972
H         11.94934       -0.36752       18.72573
C          9.86382        2.02059       19.53873
H          8.89864        2.51479       19.54726
H         10.60950        2.75132       19.83590
H          9.84474        1.24538       20.29842
C          8.95561       -0.00168       17.35711
H          7.95157        0.40695       17.43501
H          9.00875       -0.86930       18.00840
H          9.09080       -0.35434       16.33621
C         13.08354        2.47632       14.06727
H         13.22116        1.94357       15.00286
H         13.94537        2.27308       13.43879
H         12.21432        2.04837       13.57538
C         14.40817        5.05473       15.18564
H         14.35060        6.13058       15.31071
H         15.28794        4.84252       14.58692
H         14.56867        4.61399       16.16393
C         12.57331        5.18108       12.65459
H         12.29596        6.22523       12.73908
H         11.79566        4.67307       12.09432
H         13.48111        5.13026       12.06109
C          9.21673        6.54281       16.73771
H          8.54214        6.16087       15.97729
H          8.96148        7.58318       16.91615
H          9.01200        5.99647       17.65244
C         12.13954        6.60659       17.77195
H         13.18724        6.41724       17.56577
H         11.83627        5.94500       18.57695
H         12.05854        7.62501       18.13896
C         11.46637        7.74086       14.97300
H         12.51552        7.73511       14.69738
H         11.25005        8.71214       15.40728
H         10.88090        7.65552       14.06480
