94
CSD_code = TUCTAM | q = 0 | S = 0 | Stoichiometry = C22H58N7Si6Y | MND = 5
Y          3.23906        0.08715       12.54304
Si         5.88082        2.39837       12.54907
Si         3.21254        3.57889       11.81476
Si         5.80096       -1.11196       10.38082
Si         4.08633       -3.22002       11.56180
Si         0.94749       -0.90907       15.21064
Si        -0.13465        0.98742       13.18322
N          2.37437        0.15557        9.18224
N          1.15345       -1.29189       10.17189
N          4.22377        1.01448       15.63993
N          5.49907       -0.62869       15.14927
N          4.19241        2.23878       12.25922
N          4.60256       -1.59131       11.52137
N          1.14994       -0.00752       13.75910
C          2.03790       -0.29816       10.40881
C          3.25834        1.25408        8.90349
C          1.72290       -0.54216        8.20277
C          0.95084       -1.45985        8.83038
C          0.47322       -2.07586       11.16742
C          4.44051        0.07410       14.69566
C          3.23006        2.05114       15.56007
C          5.12430        0.90014       16.66001
C          5.93147       -0.14317       16.35171
C          6.11519       -1.73927       14.47440
C          6.38049        3.46994       14.06335
C          6.90718        3.12843       11.11367
C          2.93756        4.93951       13.13855
C          3.82398        4.59756       10.30735
C          5.54436       -1.89723        8.65438
C          7.58405       -1.54369       10.91562
C          3.09220       -3.46507       13.17173
C          5.45138       -4.55655       11.55873
C         -0.09941       -2.49962       15.02237
C          0.15215        0.01591       16.68417
C         -0.25495        2.69157       14.03642
C         -1.89055        0.23885       13.32861
H          4.02892        0.94069        8.19783
H          3.72896        1.58233        9.83132
H          2.69613        2.08725        8.47540
H          1.85499       -0.33404        7.16076
H          0.28711       -2.20115        8.43499
H          0.85800       -3.09681       11.17182
H          0.62443       -1.62395       12.15011
H         -0.59493       -2.09732       10.94568
H          3.61489        2.88808       14.97214
H          2.98315        2.39372       16.56536
H          2.33277        1.66327       15.07083
H          5.12410        1.55124       17.51036
H          6.75983       -0.56573       16.88239
H          7.19677       -1.60021       14.44761
H          5.89367       -2.67128       14.99905
H          5.73104       -1.79564       13.45123
H          6.44154        1.03973       12.82989
H          7.45911        3.58613       14.10702
H          6.06716        3.03199       15.00602
H          5.95242        4.46524       14.00452
H          7.96948        2.99754       11.29430
H          6.72456        4.19002       10.98789
H          6.67419        2.63885       10.17424
H          1.87555        3.02219       11.44858
H          2.33705        5.74578       12.72765
H          3.87754        5.37332       13.46738
H          2.42107        4.57123       14.01952
H          2.99583        5.09098        9.80658
H          4.51668        5.37290       10.61903
H          4.33519        3.98359        9.57371
H          5.75243        0.35788       10.19240
H          6.15380       -1.41701        7.89530
H          5.80751       -2.94900        8.66756
H          4.50646       -1.83255        8.34274
H          8.28621       -1.34516       10.11243
H          7.88446       -0.94119       11.76636
H          7.68545       -2.58771       11.19208
H          3.19784       -3.61640       10.41937
H          2.31099       -4.20674       13.04395
H          2.62714       -2.52900       13.48175
H          3.72013       -3.81123       13.98574
H          5.03024       -5.55149       11.66318
H          6.15995       -4.41419       12.36916
H          6.00927       -4.53327       10.62960
H          2.30030       -1.33488       15.69756
H         -0.14229       -3.04343       15.96075
H         -1.11882       -2.26963       14.73204
H          0.31083       -3.17056       14.27541
H          0.13703       -0.60594       17.57399
H          0.68587        0.92770       16.93198
H         -0.87362        0.29056       16.46257
H          0.06431        1.21426       11.71753
H         -1.10634        3.25143       13.66308
H         -0.37112        2.59795       15.11173
H          0.63376        3.28132       13.84414
H         -2.62483        0.87138       12.83932
H         -2.19085        0.13683       14.36588
H         -1.95120       -0.74479       12.87446
