149
CSD_code = SAKMUO | q = -1 | S = 0 | Stoichiometry = C56H84Si8V(1-) | MND = 4
V         14.48113       -0.30703       -0.00048
C         13.92603       -1.33575        1.51847
C         13.34098       -1.93096        2.41143
C         12.62390       -2.63997        3.39327
C         11.23225       -2.43503        3.48827
C         10.52660       -3.17528        4.42512
H          9.45806       -3.03704        4.51266
C         11.16112       -4.08777        5.25199
H         10.58911       -4.65836        5.97253
C         12.53221       -4.25696        5.16189
H         13.02333       -4.95850        5.82205
C         13.29007       -3.54410        4.24356
Si        10.38947       -1.13825        2.38623
C         11.15955        0.58319        2.68421
H         10.46774        1.37774        2.42118
H         12.05906        0.71166        2.08556
H         11.43993        0.72066        3.72483
C         10.44725       -1.60490        0.53843
H          9.75109       -1.00271       -0.03799
H         10.19298       -2.64826        0.37460
H         11.44162       -1.44170        0.12758
C          8.54137       -1.02699        2.88448
H          8.03564       -0.27043        2.29291
H          8.42120       -0.75781        3.92911
H          8.02355       -1.96670        2.72049
Si        15.17480       -3.70897        4.15676
C         15.77314       -4.29299        2.44430
H         16.84060       -4.48963        2.44849
H         15.57936       -3.53360        1.69187
H         15.26878       -5.20369        2.13365
C         15.75834       -5.00844        5.43886
H         16.83794       -5.11811        5.40512
H         15.32622       -5.98534        5.24588
H         15.49238       -4.72102        6.45125
C         15.97297       -2.03918        4.62521
H         17.02998       -2.14341        4.85063
H         15.49129       -1.60307        5.49618
H         15.87499       -1.33396        3.80618
C         14.18997        1.54262        0.42070
C         14.21587        2.68689        0.84964
C         14.32143        4.00390        1.33602
C         15.22653        4.25933        2.38645
C         15.36712        5.56808        2.82328
H         16.05898        5.78689        3.62452
C         14.63936        6.60130        2.25610
H         14.76999        7.61638        2.60894
C         13.73270        6.32712        1.24662
H         13.15382        7.13540        0.82149
C         13.55006        5.03696        0.76879
Si        16.16351        2.82099        3.19859
C         17.17878        3.51255        4.67055
H         17.70365        2.70947        5.17812
H         16.54435        4.00126        5.40321
H         17.92374        4.23059        4.34254
C         17.39882        1.98842        2.00844
H         16.88038        1.36311        1.28389
H         18.09501        1.35500        2.55045
H         17.98176        2.71752        1.45260
C         14.92480        1.55383        3.90965
H         14.60739        0.85154        3.14149
H         14.03222        2.04098        4.29244
H         15.36316        0.98268        4.72241
Si        12.25565        4.63513       -0.55376
C         11.38594        6.25139       -1.10507
H         10.64005        6.04186       -1.86564
H         12.08947        6.96223       -1.52704
H         10.87854        6.73680       -0.27733
C         10.92604        3.49394        0.20410
H         10.03489        3.44141       -0.41407
H         10.62455        3.84042        1.18896
H         11.31548        2.48701        0.31359
C         13.02681        3.84761       -2.10823
H         12.29012        3.73465       -2.89747
H         13.42254        2.86184       -1.88098
H         13.84194        4.45053       -2.49852
C         13.45218       -0.86180       -1.51916
C         12.85706       -1.44704       -2.41207
C         12.14762       -2.16453       -3.39322
C         12.35260       -3.55620       -3.48791
C         11.61247       -4.26208       -4.42461
H         11.75092       -5.33064       -4.51193
C         10.70047       -3.62773       -5.25218
H         10.13012       -4.20000       -5.97272
C         10.53169       -2.25658       -5.16286
H          9.82987       -1.76567       -5.82288
C         11.24418       -1.49849       -4.24442
Si        13.64894       -4.39879       -2.38519
C         15.37062       -3.62898       -2.68251
H         16.16500       -4.32101       -2.41951
H         15.49914       -2.72963       -2.08361
H         15.50835       -3.34835       -3.72303
C         13.18120       -4.34060       -0.53766
H         13.78288       -5.03676        0.03931
H         12.13769       -4.59463       -0.37444
H         13.34431       -3.34618       -0.12692
C         13.76036       -6.24701       -2.88299
H         14.51661       -6.75271       -2.29099
H         14.03004       -6.36736       -3.92747
H         12.82055       -6.76477       -2.71939
Si        11.07894        0.38623       -4.15789
C         10.49462        0.98489       -2.44563
H         10.29758        2.05228       -2.45027
H         11.25403        0.79168       -1.69308
H          9.58409        0.48029       -2.13492
C          9.77972        0.96948       -5.44037
H          9.67007        2.04908       -5.40672
H          8.80280        0.53739       -5.24740
H         10.06723        0.70340       -6.45271
C         12.74877        1.18448       -4.62606
H         12.64437        2.24144       -4.85158
H         13.18524        0.70286       -5.49690
H         13.45382        1.08674       -3.80685
C         16.33131       -0.59866       -0.42071
C         17.47561       -0.57213       -0.84945
C         18.79255       -0.46691       -1.33633
C         19.04790        0.43894       -2.38612
C         20.35664        0.57989       -2.82295
H         20.57522        1.27181       -3.62419
C         21.38989       -0.14815       -2.25621
H         22.40492       -0.01729       -2.60910
C         21.11586       -1.05515       -1.24702
H         21.92425       -1.63410       -0.82219
C         19.82573       -1.23806       -0.76914
Si        17.60949        1.37615       -3.19789
C         18.30088        2.39164       -4.66975
H         17.49779        2.91671       -5.17710
H         18.78949        1.75736       -5.40261
H         19.01900        3.13646       -4.34160
C         16.77730        2.61123       -2.00726
H         16.15181        2.09281       -1.28284
H         16.14415        3.30787       -2.54901
H         17.50668        3.19369       -1.45128
C         16.34222        0.13761       -3.90907
H         15.63992       -0.17989       -3.14095
H         16.82929       -0.75496       -4.29196
H         15.77105        0.57605       -4.72178
Si        19.42432       -2.53280        0.55318
C         21.04072       -3.40250        1.10411
H         20.83132       -4.14855        1.86457
H         21.75146       -2.69893        1.52617
H         21.52615       -3.90968        0.27624
C         18.28327       -3.86252       -0.20472
H         18.23113       -4.75386        0.41321
H         18.62947       -4.16370       -1.18976
H         17.27621       -3.47334       -0.31381
C         18.63669       -1.76219        2.10786
H         18.52380       -2.49911        2.89689
H         17.65089       -1.36644        1.88076
H         19.23959       -0.94716        2.49835
