105
CSD_code = ABUGUA | q = 0 | S = 0 | Stoichiometry = C40H57O4PRuSi2 | MND = 6
Ru         1.30043        3.48011        9.54467
Si         0.61770        4.81153        7.51839
Si         3.38003        2.56421        8.49106
P          1.54100        2.42047       11.80148
O          3.40915        5.17150        7.33692
O          2.95434        5.91102       10.26154
O         -1.29709        4.60239       10.57340
O          0.04444        1.25686        7.92944
C          0.78601        4.09676        5.73541
H          0.53626        3.04263        5.68658
H          1.79138        4.22110        5.35454
H          0.11331        4.62733        5.06829
C         -1.26683        5.26117        7.54257
H         -1.54730        5.76080        6.62047
H         -1.53661        5.91698        8.36396
H         -1.87638        4.36546        7.62373
C          3.37148        2.08043        6.61231
H          4.24263        1.47378        6.38257
H          3.40785        2.95664        5.97839
H          2.49121        1.50739        6.33884
C          4.21931        0.92778        9.13713
H          3.56726        0.07442        8.98465
H          4.49707        0.95076       10.18398
H          5.12455        0.74520        8.56634
C          0.54744        3.38791       13.07416
H         -0.40344        3.54849       12.54920
C          1.15170        4.76939       13.33003
H          2.04022        4.67834       13.95812
H          1.44885        5.23400       12.38513
C          0.13224        5.65940       14.03740
H          0.56709        6.64341       14.22331
H         -0.73730        5.79637       13.39047
C         -0.30582        5.02443       15.35365
H         -1.06495        5.64576       15.83211
H          0.55040        4.96454       16.03009
C         -0.85814        3.62275       15.11321
H         -1.75694        3.68818       14.49529
H         -1.14047        3.16661       16.06452
C          0.18185        2.74375       14.41507
H         -0.23353        1.74517       14.27899
H          1.05173        2.66263       15.06353
C          0.73540        0.73886       11.93493
H          0.83963        0.39642       12.97196
C         -0.75076        0.83948       11.58195
H         -1.26698        1.51348       12.26772
H         -0.85231        1.25163       10.57239
C         -1.42726       -0.52836       11.63204
H         -1.38408       -0.91934       12.65232
H         -2.47919       -0.42232       11.35992
C         -0.73547       -1.50258       10.68677
H         -0.81260       -1.13259        9.66246
H         -1.22281       -2.47827       10.73064
C          0.73336       -1.63125       11.07030
H          0.81032       -2.04049       12.08129
H          1.23992       -2.32025       10.39193
C          1.42327       -0.27044       11.01671
H          1.40074        0.10700        9.99099
H          2.46829       -0.39493       11.30410
C          3.23395        2.10316       12.53474
H          3.59243        1.24775       11.94887
C          3.29726        1.71304       14.01075
H          3.05129        2.57470       14.63190
H          2.59683        0.90690       14.23561
C          4.71709        1.26856       14.36136
H          4.75832        0.97371       15.41227
H          4.98915        0.39828       13.75965
C          5.70493        2.40075       14.09772
H          6.71919        2.07198       14.33135
H          5.47031        3.24551       14.74982
C          5.62349        2.84413       12.64047
H          5.93436        2.01856       11.99692
H          6.30327        3.67844       12.46046
C          4.20021        3.25990       12.27481
H          3.91876        4.13132       12.86881
H          4.17168        3.54499       11.22033
C          2.33314        4.97162       10.03098
C         -0.30126        4.17903       10.19121
C          0.50905        2.05945        8.61376
C          1.50691        6.50314        7.42077
C          0.92783        7.76071        7.45451
H         -0.14558        7.85129        7.51454
C          1.71793        8.89735        7.42820
H          1.25755        9.87435        7.46306
C          3.09751        8.79876        7.35980
H          3.68477        9.70323        7.34447
C          3.71767        7.55805        7.30763
C          5.21234        7.33329        7.15670
C          5.56712        6.06480        7.91465
C          6.77578        5.83941        8.55878
H          7.52895        6.61052        8.59274
C          7.03684        4.61988        9.15918
H          7.98871        4.46045        9.64590
C          6.09249        3.60815        9.14091
H          6.31114        2.66435        9.61440
C          4.86323        3.79645        8.53106
C          4.64206        5.02577        7.91784
C          2.89441        6.43791        7.33829
C          5.49641        7.07775        5.66245
H          4.92494        6.22351        5.30527
H          6.55450        6.87136        5.51230
H          5.21808        7.94963        5.07330
C          6.03074        8.53800        7.62030
H          5.76968        9.41856        7.03901
H          7.09160        8.35580        7.46945
H          5.85181        8.74221        8.67378
