97
CSD_code = AFIBAU | q = 0 | S = 0 | Stoichiometry = C26H60FeN6Si4 | MND = 4
Fe        -2.68957        8.84423        3.64120
Si        -4.77819       10.45546        2.95024
Si        -4.20561        8.53723        0.62265
N         -3.68232        7.46157        4.42490
N         -5.37850        6.08960        4.69734
N         -4.09595        9.07032        2.23168
C         -4.97449        7.29996        4.26154
H         -5.59097        8.03012        3.79419
C         -3.22128        6.31811        4.98887
H         -2.19258        6.21454        5.24061
C         -4.26147        5.45780        5.16935
H         -4.28520        4.47433        5.58931
C         -6.72222        5.52546        4.67184
C         -7.69729        6.52736        4.05529
H         -7.73244        7.44378        4.63798
H         -8.69420        6.09427        4.03773
H         -7.40985        6.76820        3.03534
C         -7.14687        5.21023        6.11041
H         -6.49036        4.46962        6.55897
H         -8.16158        4.82183        6.12335
H         -7.11240        6.11214        6.71691
C         -6.69665        4.24947        3.82307
H         -6.35652        4.47782        2.81571
H         -7.69383        3.82196        3.76365
H         -6.02957        3.50662        4.25186
C         -4.27108       10.34627        4.78329
H         -4.94818        9.73337        5.36543
H         -4.23036       11.32299        5.25162
H         -3.27622        9.90262        4.88348
C         -6.70083       10.47744        2.84176
H         -7.03340       11.17710        2.08360
H         -7.15701       10.77583        3.78071
H         -7.09629        9.50349        2.57361
C         -4.21224       12.16353        2.29378
H         -3.17423       12.36341        2.53249
H         -4.80965       12.96803        2.71231
H         -4.31570       12.20825        1.21550
C         -5.26988        9.69127       -0.46733
H         -6.24896        9.84512       -0.02964
H         -5.41011        9.28195       -1.46286
H         -4.80472       10.66437       -0.57476
C         -2.51324        8.42164       -0.25717
H         -2.10718        9.41320       -0.42379
H         -2.59293        7.93181       -1.22259
H         -1.79742        7.87202        0.33893
C         -5.09131        6.82371        0.54702
H         -5.28261        6.44200        1.54531
H         -4.50427        6.08311        0.01275
H         -6.04918        6.90211        0.04182
Si        -0.60071       10.45540        4.33199
Si        -1.17329        8.53723        6.65962
N         -1.69675        7.46155        2.85758
N         -0.00054        6.08962        2.58503
N         -1.28315        9.07041        5.05063
C         -0.40456        7.29998        3.02084
H          0.21194        8.03019        3.48811
C         -2.15778        6.31808        2.29363
H         -3.18648        6.21449        2.04192
C         -1.11759        5.45777        2.11314
H         -1.09387        4.47429        1.69321
C          1.34320        5.52554        2.61032
C          2.31837        6.52748        3.22664
H          2.35336        7.44388        2.64391
H          3.31530        6.09443        3.24401
H          2.03113        6.76834        4.24663
C          1.76763        5.21021        1.17170
H          1.11107        4.46957        0.72328
H          2.78236        4.82186        1.15856
H          1.73300        6.11210        0.56518
C          1.31786        4.24955        3.45910
H          0.97789        4.47793        4.46650
H          2.31508        3.82208        3.51839
H          0.65074        3.50665        3.03047
C         -1.10804       10.34616        2.49901
H         -0.43103        9.73312        1.91691
H         -1.14863       11.32286        2.03062
H         -2.10297        9.90264        2.39893
C          1.32193       10.47703        4.44048
H          1.65471       11.17725        5.19804
H          1.77813       10.77450        3.50124
H          1.71710        9.50319        4.70943
C         -1.16624       12.16364        4.98839
H         -2.20451       12.36336        4.75065
H         -0.56934       12.96803        4.56893
H         -1.06170       12.20886        6.06654
C         -0.10922        9.69142        7.74963
H          0.86986        9.84522        7.31193
H          0.03100        9.28217        8.74519
H         -0.57439       10.66454        7.85696
C         -2.86554        8.42142        7.53971
H         -3.27144        9.41289        7.70714
H         -2.78583        7.93090        8.50475
H         -3.58158        7.87238        6.94340
C         -0.28757        6.82374        6.73509
H         -0.09539        6.44272        5.73670
H         -0.87490        6.08271        7.26845
H          0.66987        6.90205        7.24115
