81
CSD_code = AGAHIA | q = 0 | S = 0 | Stoichiometry = C23H46Cl3N3O2PSi2V | MND = 5
V         10.79658        3.85741        1.62734
Cl         9.12660        2.69760        1.98718
Cl        11.95409        4.84730        0.22544
Cl        12.04848        3.77781        3.46268
Si         6.24416        4.91198        1.79280
Si        10.26403        8.21804        3.10689
P          8.49612        5.99041        2.30569
O          9.90057        5.52140        2.29793
O         11.73150        2.09633        0.95274
N          7.52883        5.77207        0.94706
N          7.31866        5.15849        3.16227
N          8.62857        7.56630        2.80975
C          7.86402        5.87695       -0.46106
C          8.92287        6.96183       -0.64015
H          8.57501        7.91117       -0.23805
H          9.16044        7.09127       -1.69414
H          9.82626        6.66525       -0.11188
C          8.42309        4.54444       -0.97761
H          9.31620        4.27409       -0.40530
H          8.69583        4.63060       -2.02730
H          7.68445        3.75483       -0.86329
C          6.59432        6.23252       -1.24145
H          6.17656        7.17095       -0.88595
H          5.84694        5.45361       -1.11258
H          6.82177        6.33053       -2.30003
C          7.24467        4.76635        4.55730
C          6.89609        3.27874        4.65694
H          7.62941        2.68447        4.11974
H          5.91529        3.09418        4.22595
H          6.88828        2.96714        5.69851
C          8.60233        5.02616        5.20042
H          9.37329        4.44208        4.69660
H          8.58929        4.75351        6.25355
H          8.84825        6.08034        5.10472
C          6.15343        5.58013        5.26479
H          6.35016        6.64449        5.16702
H          6.11748        5.32122        6.32018
H          5.18541        5.36828        4.81736
C          4.61612        5.88855        1.92766
H          3.86524        5.27559        2.41405
H          4.23328        6.14225        0.94565
H          4.71985        6.80734        2.49413
C          5.83531        3.14021        1.22711
H          5.07399        2.71382        1.87186
H          6.69530        2.47869        1.24205
H          5.42831        3.15064        0.22059
C          7.47230        8.31383        3.08461
C          6.56499        8.62160        2.07990
H          6.74874        8.26012        1.08179
C          5.44432        9.38625        2.35488
H          4.74983        9.62018        1.56092
C          5.21577        9.85664        3.63613
H          4.34360       10.45621        3.84870
C          6.11755        9.55528        4.64342
H          5.94782        9.91677        5.64710
C          7.23528        8.78832        4.37205
H          7.94020        8.55206        5.15526
C          9.96538       10.06085        3.50259
H          9.25526       10.52060        2.82379
H         10.90442       10.59277        3.40774
H          9.60580       10.22417        4.51084
C         11.17684        7.38596        4.55812
H         11.34395        6.32994        4.35982
H         10.65869        7.47369        5.50992
H         12.15147        7.85044        4.68007
C         11.37231        8.19997        1.56042
H         10.92138        8.69366        0.70424
H         11.63427        7.18647        1.27240
H         12.30012        8.71892        1.78418
C         12.10104        1.03679        1.83166
H         11.28052        0.85335        2.53965
H         12.98119        1.37079        2.38812
C         12.37038       -0.19606        0.95101
H         13.36041       -0.61053        1.12709
H         11.63209       -0.97227        1.14954
C         12.21569        0.34003       -0.47522
H         11.81181       -0.39738       -1.16441
H         13.17296        0.69757       -0.85565
C         11.27690        1.52226       -0.25885
H         11.34152        2.29112       -1.03433
H         10.23357        1.18619       -0.14458
