98
CSD_code = AJOBIM | q = 0 | S = 0 | Stoichiometry = C47H44ClOP3RuSi | MND = 5
Ru         0.70443        4.78603        9.45922
Cl         0.85314        4.27225       11.72191
P         -1.54253        4.82517        9.05931
P          1.01521        2.52747        9.19467
P          1.13391        6.89891       10.20152
Si        -3.69650        4.56553        6.87293
O          1.63078        5.39815        6.69187
C         -2.99764       -0.06338        6.34039
C          0.13755        1.59762        5.36618
H         -0.67931        1.81741        4.69551
C          5.58334        6.35889       11.14802
H          6.63100        6.18998       11.35102
C          2.65989        2.27515        9.92745
C          0.21002       -0.09091        9.72794
H          1.03076       -0.38316        9.08671
C         -3.67205        2.05347        5.40605
H         -3.98749        2.62783        4.54699
C          0.31846        7.61332       11.66154
C         -0.05478        8.33394        8.19881
H         -0.74443        7.49584        8.20885
C          1.18697        0.79125        4.95399
H          1.19303        0.38051        3.95490
C          2.90737        1.45753       11.02266
H          2.11156        0.85491       11.43801
C          1.17760        1.83390        7.52015
C          0.13535        2.12150        6.64417
H         -0.67303        2.75986        6.98048
C         -3.41327        0.70201        5.25968
H         -3.52680        0.23595        4.28992
C          2.23359        1.03287        7.10215
H          3.05403        0.81994        7.77528
C          3.32467        6.56448       11.93559
H          2.60515        6.53815       12.74283
C          2.89435        6.79903       10.63352
C         -0.03636        1.25936        9.96672
C         -0.23852        9.39492        7.33230
H         -1.07988        9.39921        6.65524
C          0.22862        9.23190       13.42974
H          0.67505       10.05446       13.96990
C         -1.90381        0.67067       11.35617
H         -2.72866        0.96569       11.98779
C          4.66759        6.34724       12.18696
H          4.99940        6.16244       13.19837
C         -2.86983        0.55688        7.57776
H         -2.55407       -0.02206        8.43432
C         -3.52538        2.68612        6.63485
C          1.92931        9.38209        9.06915
H          2.78043        9.37423        9.73657
C         -3.12683        1.90538        7.71598
H         -2.99633        2.37433        8.68349
C         -1.00374        8.73181       13.82152
H         -1.51427        9.16497       14.66930
C          0.88996        8.68005       12.34914
H          1.85178        9.06831       12.04229
C         -2.65809       -1.51371        6.17938
H         -3.14679       -1.93634        5.30450
H         -2.95443       -2.08012        7.05986
H         -1.57979       -1.62612        6.05587
C          1.03145        8.32111        9.06824
C         -0.92240        7.12251       12.04689
H         -1.35865        6.29242       11.50306
C          2.23436        0.51645        5.81798
H          3.05624       -0.10468        5.49127
C          5.15592        6.57497        9.84675
H          5.86840        6.57393        9.03396
C          3.81516        6.78227        9.58594
H          3.46721        6.93548        8.57048
C          3.67907        3.08067        9.41825
H          3.47156        3.72804        8.56992
C         -1.98816        5.07352        7.47445
H         -1.23518        5.33539        6.73976
C         -1.57973        7.68025       13.12856
H         -2.54050        7.29231       13.43318
C         -5.00656        4.94106        8.20154
H         -5.95949        4.47320        7.97448
H         -5.17333        6.00930        8.29589
H         -4.67319        4.57456        9.16702
C         -0.59641       -1.05059       10.30949
H         -0.40374       -2.09807       10.12584
C          1.18635        5.17158        7.73567
C          4.93735        3.04995        9.98600
H          5.72414        3.67421        9.58879
C         -1.65395       -0.67122       11.12302
H         -2.28421       -1.42510       11.57223
C          0.66165       10.44848        7.33095
H          0.52386       11.27676        6.65146
C          4.16973        1.43692       11.59091
H          4.35952        0.80581       12.44713
C          1.74244       10.44006        8.19774
H          2.44458       11.26137        8.19361
C         -4.11961        5.42929        5.22991
H         -3.35751        5.25034        4.47858
H         -4.19869        6.50241        5.36857
H         -5.06752        5.07946        4.83454
C          5.18212        2.22880       11.07622
H          6.16233        2.21434       11.52992
C         -1.09762        1.63640       10.77936
H         -1.28067        2.68695       10.96775
