64
CSD_code = ASOFOE | q = 0 | S = 0 | Stoichiometry = C32H28Cl2SiZr | MND = 12
Zr         2.49118        1.43267        2.56776
Cl         0.63994        0.06062        2.99500
Cl         3.00430        1.62182        4.82533
Si         3.52843        2.42737       -0.41181
C          3.91525        0.91051        0.66036
C          3.07212       -0.22768        0.83567
C          3.40030       -0.88075        2.04264
H          2.97972       -1.82312        2.37187
C          4.45037       -0.15922        2.66946
C          4.76232        0.96384        1.82434
C          2.37570        3.17632        0.88912
C          1.02492        2.73724        1.05289
H          0.41836        2.29960        0.26563
C          0.53698        3.08788        2.32262
C          1.58768        3.77105        3.00938
C          2.74236        3.80124        2.13264
C          5.81598        1.84089        2.19469
H          6.11401        2.63555        1.52594
C          6.48777        1.63172        3.35947
H          7.29228        2.29362        3.64638
C          6.18504        0.54432        4.23153
C          5.16646       -0.38141        3.88862
C          3.92183        4.42206        2.59344
H          4.78646        4.50586        1.95027
C          3.94098        4.98613        3.84538
H          4.84208        5.46422        4.19986
C          2.80764        4.97791        4.67608
H          2.86676        5.45107        5.64416
C          1.63707        4.38779        4.27298
H          0.75933        4.40050        4.90439
C         -0.86454        2.92357        2.84039
H         -0.85395        2.37798        3.79089
H         -1.44661        2.33151        2.12569
C         -1.52673        4.26583        3.04138
C         -2.24044        4.54252        4.19902
H         -2.32422        3.78782        4.96854
C         -2.84517        5.77500        4.37606
H         -3.39694        5.97718        5.28256
C         -2.73953        6.74735        3.39707
H         -3.20873        7.71019        3.53564
C         -2.02776        6.48006        2.23964
H         -1.94152        7.23512        1.47186
C         -1.42606        5.24780        2.06327
H         -0.86743        5.04380        1.16109
C          2.57227        2.06599       -2.02438
H          2.40343        2.99396       -2.56064
H          1.60570        1.60504       -1.85963
H          3.14634        1.41667       -2.67657
C          5.05521        3.45730       -0.91577
H          4.84290        4.00641       -1.82650
H          5.90748        2.81544       -1.11348
H          5.34942        4.18335       -0.16742
C          2.00710       -0.71203       -0.10743
H          1.80510       -1.76670        0.07464
H          2.31987       -0.59277       -1.14258
H          1.06941       -0.16663        0.04756
C          6.88849        0.35768        5.43174
H          7.66075        1.06575        5.69704
C          6.60008       -0.69579        6.26226
H          7.14517       -0.82407        7.18583
C          5.59517       -1.60370        5.92217
H          5.37019       -2.42505        6.58640
C          4.89000       -1.45044        4.75424
H          4.10273       -2.14536        4.49921
