68
CSD_code = ASOJUO | q = 0 | S = 0 | Stoichiometry = C29H34O2Si2W | MND = 9
W          8.23869       12.13276        0.69953
Si         8.36540       10.28550        2.31315
Si        10.60675       13.43726        5.14305
O          5.21992       11.41730        0.27282
O          6.22464       14.23661        1.81599
C          9.14537       12.64818        2.56958
C          9.77934       12.96475        3.55889
C          9.31952       14.25681        6.28294
H          8.50604       13.56793        6.49051
H          8.89041       15.13865        5.81792
H          9.75188       14.55875        7.23279
C         12.06085       14.62681        4.79336
H         11.71496       15.53557        4.30973
H         12.79999       14.16930        4.14152
H         12.56770       14.91524        5.71002
C         11.26558       11.84999        5.97979
H         11.60868       12.05026        6.99082
H         12.10030       11.42111        5.43290
H         10.48612       11.09533        6.03999
C          9.78404        9.00105        2.38836
C         11.00234        9.35131        2.97114
H         11.10577       10.33189        3.41128
C         12.06215        8.46331        2.99031
H         12.99811        8.75057        3.44766
C         11.92621        7.20578        2.42417
H         12.75360        6.51156        2.43877
C         10.72443        6.84219        1.83955
H         10.61341        5.86283        1.39678
C          9.66687        7.73429        1.81950
H          8.73208        7.44525        1.35978
C          7.62963       10.19037        4.08327
C          6.79527       11.22502        4.50880
H          6.55679       12.02582        3.82107
C          6.29140       11.24523        5.79547
H          5.65301       12.05716        6.11144
C          6.60536       10.22635        6.68127
H          6.21401       10.24277        7.68810
C          7.42280        9.18656        6.27168
H          7.66854        8.38954        6.95879
C          7.92985        9.16918        4.98438
H          8.57128        8.35534        4.67627
C          6.35275       11.61252        0.44503
C          6.99075       13.44869        1.44808
C         10.41626       12.14240       -0.12030
C          9.69379       11.19859       -0.90712
C          8.65056       11.90189       -1.58362
C          8.74502       13.28578       -1.23834
C          9.83141       13.43533       -0.32727
C         11.72192       11.90207        0.58012
H         11.86355       10.84569        0.80221
H         11.76900       12.45682        1.51763
H         12.54821       12.23239       -0.05370
C         10.09722        9.77791       -1.17975
H         10.73313        9.73975       -2.06768
H          9.22926        9.14594       -1.36268
H         10.65489        9.35358       -0.34667
C          7.77171       11.32900       -2.65720
H          8.27074       11.40441       -3.62642
H          6.82609       11.86530       -2.72356
H          7.55330       10.27809       -2.47130
C          7.97401       14.39891       -1.88369
H          8.48069       14.72774       -2.79430
H          7.88714       15.25493       -1.21646
H          6.96864       14.07838       -2.15368
C         10.42529       14.72724        0.14962
H         11.25360       15.02178       -0.49938
H         10.80522       14.62762        1.16619
H          9.68598       15.52593        0.14091
