83
CSD_code = AYEGIW | q = 1 | S = 0 | Stoichiometry = C26H50MnP4Si2(1+) | MND = 6
Mn        -7.52465       -6.89863       -0.01621
P         -7.84767       -8.82022        1.13699
P         -8.87243       -7.82824       -1.55869
C         -9.90506       -9.07863       -0.68604
H        -10.62607       -8.52450       -0.07409
H        -10.45058       -9.68521       -1.41568
C         -8.99143       -9.92210        0.18918
H         -8.36488      -10.56794       -0.43588
H         -9.55335      -10.55007        0.88698
C         -6.50067      -10.00228        1.48575
H         -5.90285      -10.14371        0.58519
H         -6.93818      -10.95205        1.79637
H         -5.86108       -9.61998        2.27902
C         -8.66688       -8.72432        2.76656
H         -9.62110       -8.20772        2.66174
H         -8.03457       -8.15728        3.45091
H         -8.82211       -9.72958        3.15926
C         -8.12679       -8.81559       -2.90228
H         -7.58030       -8.14930       -3.57012
H         -8.90727       -9.33644       -3.45794
H         -7.41788       -9.52937       -2.48248
C        -10.15839       -6.90511       -2.46375
H        -10.70638       -6.27154       -1.76605
H        -10.84075       -7.61572       -2.93204
H         -9.69560       -6.28975       -3.23561
Si       -13.78333       -3.89441        2.95885
C         -9.11402       -6.19492        0.74221
C        -10.14014       -5.71080        1.21509
C        -11.25615       -5.16669        1.74624
C        -12.26191       -4.66770        2.22205
C        -13.82501       -4.36361        4.80381
H        -12.94300       -4.00451        5.32590
H        -13.87360       -5.43997        4.93995
H        -14.69368       -3.93173        5.29190
C        -13.63427       -2.01018        2.72666
H        -14.49793       -1.50033        3.14315
H        -13.57069       -1.74207        1.67610
H        -12.75125       -1.61654        3.22154
C        -15.29353       -4.58945        2.03104
H        -15.25162       -4.35684        0.97100
H        -16.21438       -4.16767        2.42288
H        -15.35955       -5.66900        2.12953
P         -7.20127       -4.97649       -1.16906
P         -6.17616       -5.96911        1.52635
C         -5.14523       -4.71658        0.65483
H         -4.42313       -5.26898        0.04264
H         -4.60096       -4.10970        1.38517
C         -6.05997       -3.87367       -0.21971
H         -6.68828       -3.22999        0.40582
H         -5.49905       -3.24371       -0.91656
C         -8.54831       -3.79525       -1.52058
H         -9.14795       -3.65416       -0.62118
H         -8.11067       -2.84523       -1.83025
H         -9.18608       -4.17772       -2.31526
C         -6.37966       -5.07210       -2.79751
H         -5.42479       -5.58715       -2.69123
H         -7.01013       -5.64036       -3.48257
H         -6.22539       -4.06681       -3.19050
C         -6.92011       -4.98378        2.87241
H         -7.46721       -5.65083        3.53898
H         -6.13874       -4.46512        3.42889
H         -7.62835       -4.26824        2.45452
C         -4.88871       -6.89235        2.42917
H         -4.34114       -7.52515        1.73047
H         -4.20621       -6.18166        2.89714
H         -5.35040       -7.50833        3.20121
Si        -1.17702       -9.79754       -2.90770
C         -5.93085       -7.59645       -0.77087
C         -4.89203       -8.06466       -1.23182
C         -3.75762       -8.58779       -1.74472
C         -2.73217       -9.06360       -2.20177
C         -1.12068       -9.34679       -4.75681
H         -1.98216       -9.73984       -5.28858
H         -1.10469       -8.27093       -4.90411
H         -0.23082       -9.75538       -5.22641
C         -1.26963      -11.68268       -2.65552
H         -0.38369      -12.16929       -3.05256
H         -1.34133      -11.94081       -1.60298
H         -2.13174      -12.10981       -3.15936
C          0.29552       -9.04428       -1.96457
H          0.24484       -9.26708       -0.90279
H          1.23543       -9.44007       -2.33786
H          0.32833       -7.96423       -2.07378
