69
CSD_code = BAKPUZ | q = 0 | S = 0 | Stoichiometry = C17H43ClN3OScSi3 | MND = 5
Sc         5.87361        3.02720        2.75232
Cl         6.19329        2.92926        0.48188
O          4.52903        4.77206        2.59449
N          4.35903        1.94287        3.61385
N          7.22303        4.09286        3.88060
N          7.12682        1.21212        3.88201
Si         2.79177        1.49098        3.10483
Si         8.15097        5.47867        3.50199
Si         7.85186        0.23381        2.57898
C          4.82627        1.39799        4.87649
C          6.08435        0.53365        4.65857
C          8.07896        1.94024        4.72415
C          7.60894        3.36433        5.07704
C          2.56564        2.07760        1.30152
C          1.39282        2.25720        4.18830
C          2.47790       -0.40512        3.16065
C          8.09570        6.80609        4.89535
C          7.42786        6.25258        1.91492
C         10.02148        5.12720        3.21556
C          9.06005        1.38442        1.65429
C          6.38733       -0.36602        1.51279
C          8.79886       -1.25415        3.32646
C          4.07133        5.38098        3.81726
C          3.08255        6.48069        3.42463
C          2.61750        6.01789        2.04653
C          3.91076        5.44323        1.48709
H          5.05305        2.20920        5.58811
H          4.07395        0.75881        5.35897
H          6.48599        0.21053        5.62932
H          5.76062       -0.35595        4.11320
H          8.27885        1.37632        5.64735
H          9.01980        2.04429        4.17941
H          8.43342        3.85332        5.61393
H          6.76385        3.30847        5.78238
H          2.11330        1.29746        0.69987
H          1.91713        2.94464        1.23824
H          3.52129        2.32896        0.84503
H          0.41303        1.91916        3.86570
H          1.51010        1.96772        5.22893
H          1.39078        3.34361        4.15281
H          1.44830       -0.64211        2.91202
H          2.67131       -0.80603        4.15161
H          3.11527       -0.93919        2.46172
H          8.65044        7.69576        4.61523
H          8.53697        6.42319        5.81064
H          7.08022        7.11378        5.13085
H          8.19740        6.79121        1.37392
H          7.03180        5.48884        1.24838
H          6.63705        6.96113        2.13946
H         10.58921        6.04765        3.12080
H         10.44506        4.56927        4.04662
H         10.18664        4.54642        2.31229
H          9.08574        1.13881        0.59777
H         10.07671        1.30825        2.02961
H          8.74007        2.42514        1.73565
H          6.62856       -0.29996        0.45686
H          6.11881       -1.39795        1.72056
H          5.50675        0.25965        1.68315
H          9.24671       -1.86087        2.54699
H          9.59846       -0.92773        3.98487
H          8.14217       -1.89805        3.90385
H          4.94195        5.76504        4.36155
H          3.58580        4.59528        4.41057
H          3.58984        7.44297        3.34577
H          2.26884        6.57297        4.14013
H          2.21869        6.82404        1.43578
H          1.86768        5.23199        2.14242
H          4.57106        6.24659        1.13277
H          3.76729        4.71554        0.68576
