74
CSD_code = BCPZRB | q = 0 | S = 0 | Stoichiometry = C23H45ClSi4Zr | MND = 12
Zr         0.95160        1.41688        4.94767
Cl         1.65522        3.64285        4.60619
Si        -1.60527        3.61659        5.77293
Si        -2.13409        0.51634        6.39456
C         -0.86881        1.90118        6.14717
C         -3.39290        3.86700        6.42878
C         -1.72261        4.08785        3.91531
C         -0.62521        5.00947        6.66088
C         -3.48230        0.36450        5.03334
C         -3.08536        0.66222        8.05813
C         -1.32481       -1.22962        6.51622
C          0.30635        1.73642        2.58734
C         -0.66150        0.85519        3.10033
C         -0.01840       -0.37884        3.37066
C          1.33425       -0.24615        3.02280
C          1.56447        1.07548        2.55759
Si         3.09984        1.77487        1.72354
C          4.49031        2.40896        2.87603
C          3.83774        0.39212        0.62456
C          2.54797        3.24657        0.63911
C          3.27808        1.39271        5.96828
C          3.18490        0.15359        5.31825
C          2.17449       -0.59904        5.95860
C          1.64795        0.18337        7.00250
C          2.32260        1.43862        7.01851
Si         2.41670        2.64082        8.45969
C          0.76171        2.79330        9.41016
C          3.68339        1.89894        9.69402
C          3.06777        4.34221        7.88687
H         -0.38368        2.02521        7.12683
H          0.11676        2.71316        2.16510
H         -1.72720        1.02347        3.11983
H         -0.52024       -1.30288        3.62374
H          2.05141       -1.05612        2.98375
H          4.02652        2.15223        5.78824
H          3.85644       -0.21560        4.55354
H          1.95138       -1.64194        5.76755
H          0.96483       -0.15985        7.76792
H         -4.09338        3.16640        5.99056
H         -3.74826        4.86788        6.20605
H         -3.43463        3.74179        7.50472
H         -2.16936        3.31017        3.30474
H         -2.34093        4.97409        3.80480
H         -0.74502        4.32801        3.51118
H          0.43153        4.78133        6.73718
H         -0.71545        5.94344        6.11571
H         -1.00547        5.18497        7.66267
H         -2.41555        0.89592        8.88018
H         -3.59368       -0.26498        8.30590
H         -3.83395        1.44444        8.01888
H         -3.21590       -0.35426        4.26496
H         -4.41602        0.02873        5.47384
H         -3.67930        1.31590        4.55149
H         -1.02099       -1.45399        7.53389
H         -2.04040       -1.99454        6.22906
H         -0.45250       -1.33804        5.87740
H          5.26047        2.89439        2.28318
H          4.10949        3.14478        3.57862
H          4.97281        1.61401        3.43669
H          4.20177       -0.44430        1.21275
H          4.67426        0.77054        0.04717
H          3.10315        0.00590       -0.07414
H          3.37525        3.61946        0.04409
H          1.75023        2.97147       -0.04365
H          2.19435        4.06672        1.25647
H          0.93867        3.25820       10.37516
H          0.03074        3.39952        8.88663
H          0.31675        1.82062        9.60023
H          4.64193        1.71619        9.21822
H          3.85328        2.57038       10.52958
H          3.33622        0.95310       10.09821
H          4.15278        4.36900        7.91550
H          2.70705        5.13809        8.53024
H          2.76334        4.57326        6.87058
