71
CSD_code = BEDGOH | q = 0 | S = 0 | Stoichiometry = C30H36FeN2OSi | MND = 9
Fe         1.54543        1.61800        2.55446
Si         3.59499        0.10031        5.64224
O          2.65832       -0.92032        1.76817
N          3.72113        1.23043        6.97878
N          1.92811        0.16210        5.08598
C          4.60535        0.68972        4.15030
C          4.00025       -1.65593        6.24131
C          4.55838        2.36027        6.85970
C          4.01512        3.63864        6.95075
C          4.82127        4.75194        6.80570
C          6.17760        4.60371        6.56643
C          6.72550        3.33458        6.48908
C          5.92302        2.21764        6.63941
C          3.05139        1.08928        8.19734
C          3.56443        1.67868        9.35505
C          2.92074        1.53110       10.56813
C          1.75757        0.78650       10.66181
C          1.24678        0.19149        9.52086
C          1.88050        0.34000        8.30202
C          1.47587        1.41573        4.65492
C          0.22556        1.57143        4.04346
C         -0.12485        0.49272        3.20348
C          0.27385       -0.81754        3.68175
C          1.23555       -0.93146        4.61458
C          2.20004        0.05520        2.18244
C          1.29556        3.70628        2.33934
C          2.70019        3.45090        2.30998
C          2.94707        2.56890        1.24209
C          1.69318        2.31441        0.56971
C          0.69029        3.05933        1.22092
C          0.66438        4.73804        3.21857
C          3.68834        4.08168        3.23629
C          4.27487        2.09337        0.74317
C          1.54328        1.51710       -0.68515
C         -0.74485        3.16019        0.81855
H          5.06690       -0.14650        3.63671
H          3.91076        1.15494        3.44848
H          5.38207        1.40533        4.38728
H          3.93640       -2.37232        5.42986
H          3.33078       -1.97978        7.03169
H          5.01027       -1.69835        6.63597
H          2.95745        3.74727        7.14565
H          4.38891        5.73939        6.87361
H          6.80549        5.47393        6.44906
H          7.78521        3.21286        6.31831
H          6.34427        1.22446        6.60252
H          4.47941        2.25017        9.30276
H          3.33795        1.99750       11.44895
H          1.25683        0.67095       11.61111
H          0.33852       -0.39123        9.57647
H          1.45626       -0.11467        7.42265
H          1.88218        2.22610        5.24807
H         -0.37261        2.46150        4.15482
H         -1.01828        0.55058        2.59805
H         -0.22099       -1.69634        3.30203
H          1.53757       -1.87984        5.02558
H          0.93365        5.73829        2.87408
H         -0.42049        4.66324        3.20656
H          1.01198        4.63590        4.24529
H          3.71645        5.16157        3.08243
H          3.42146        3.90028        4.27601
H          4.68787        3.68906        3.07488
H          4.55215        2.63982       -0.15987
H          5.05182        2.24288        1.48768
H          4.23830        1.03472        0.49754
H          1.74239        2.13470       -1.56271
H          2.23862        0.68244       -0.69017
H          0.53563        1.11882       -0.76718
H         -0.90444        4.02431        0.17121
H         -1.05298        2.26925        0.27743
H         -1.38638        3.26806        1.69026
