66
CSD_code = BIDMUW | q = 0 | S = 0 | Stoichiometry = C20H36MoO6P2Si | MND = 9
Mo         2.96982       -0.42685        4.16489
P          3.13139        1.89119        4.13533
P          0.77359       -0.23779        3.44346
Si         4.55388       -2.60986        1.57533
O          2.23744        2.98908        3.36877
O          4.56937        2.54347        3.72496
O          2.88784        2.44948        5.63112
O         -0.31650        0.20996        4.53470
O         -0.03947       -1.58833        3.12476
O          0.40236        0.69952        2.15485
C          2.30230        3.19784        1.96958
C          5.77069        1.81357        3.77113
C          3.08197        3.82004        5.95596
C         -0.24927        1.50350        5.10202
C          0.58534       -2.76624        2.66418
C         -0.93085        0.71810        1.65637
C          3.50629        0.06381        2.02808
C          3.62822       -1.26978        2.49345
C          6.38550       -2.07208        1.41543
C          4.48333       -4.35470        2.35428
C          3.80074       -2.75254       -0.17858
C          2.26194       -1.78974        5.84810
C          3.35381       -2.42440        5.22028
C          4.53047       -1.66634        5.51079
C          5.89741       -1.89519        5.27249
C          6.81891       -1.01724        5.78808
C          6.42191        0.09956        6.54227
C          5.09603        0.36690        6.77721
C          4.12350       -0.50766        6.25826
C          2.69941       -0.56712        6.41222
H          1.86242        4.17916        1.78395
H          1.73264        2.42940        1.44664
H          3.33653        3.18986        1.62364
H          6.33160        2.02150        2.85762
H          5.56440        0.73716        3.84083
H          6.36228        2.11931        4.63633
H          3.34975        3.86536        7.01226
H          2.16192        4.38112        5.78570
H          3.88278        4.25069        5.35302
H         -1.15461        1.62929        5.69708
H         -0.20511        2.27307        4.32789
H          0.63087        1.60179        5.73939
H          0.25964       -3.59488        3.29563
H          1.67620       -2.66172        2.71139
H          0.28348       -2.95885        1.63234
H         -1.22344        1.75921        1.50847
H         -1.61565        0.23825        2.35826
H         -0.96694        0.19069        0.70109
H          6.98968       -2.85918        0.97422
H          6.81310       -1.82516        2.38236
H          6.47549       -1.19343        0.78437
H          5.01431       -4.40152        3.29911
H          4.94176       -5.08137        1.68982
H          3.46062       -4.67559        2.52944
H          4.37206       -3.43768       -0.79733
H          3.78978       -1.78806       -0.67599
H          2.77800       -3.11544       -0.14297
H          1.26881       -2.20889        5.96255
H          3.34846       -3.42835        4.82346
H          6.21243       -2.77639        4.73034
H          7.87356       -1.19109        5.62945
H          7.18298        0.74857        6.95221
H          4.79496        1.21192        7.38259
H          2.13338        0.03608        7.11207
H          2.72129        0.26177        1.29717
H          4.43572        0.55584        1.73144
