77
CSD_code = BIJGUX | q = 0 | S = 0 | Stoichiometry = C33H25BF15NSiTi | MND = 10
Ti         6.77838        6.81093        8.86586
Si         6.27479        9.61307        8.79122
F          6.62531        3.65364        6.12538
F          6.18954        3.07147        3.58658
F          3.64715        2.56844        2.67453
F          1.56065        2.69664        4.44869
F          1.97990        3.27144        6.99633
F          4.37550        0.90665        7.44697
F          4.73304       -1.19229        9.05732
F          5.35085       -0.83512       11.69739
F          5.60839        1.71371       12.67807
F          5.23431        3.82647       11.07045
F          2.22039        2.87501        9.89004
F          0.13616        4.36229       10.62708
F          0.00992        7.01414        9.96717
F          2.10890        8.14496        8.59683
F          4.25046        6.71145        7.94042
N          5.97271        8.20157        9.80655
C          7.38506        8.56139        7.67172
C          8.58833        7.97766        8.17888
H          9.26893        8.46497        8.86939
C          8.87742        6.82134        7.41674
H          9.78019        6.23029        7.47737
C          7.84234        6.63830        6.49601
H          7.81465        5.87968        5.72774
C          6.90696        7.67917        6.67570
H          6.03059        7.85391        6.06150
C          7.28451       11.04989        9.55559
H          7.62859       11.71572        8.77098
H          8.15886       10.69338       10.09172
H          6.68890       11.64317       10.24096
C          4.75761       10.29957        7.85557
H          5.07754       10.85279        6.97862
H          4.17768       10.97622        8.47308
H          4.09319        9.50802        7.52478
C          5.40972        8.30846       11.14450
C          6.52623        8.69373       12.13247
H          7.38213        8.03195       12.00212
H          6.16755        8.61738       13.15550
H          6.84810        9.71445       11.95116
C          4.78196        6.97876       11.59937
H          5.53531        6.20860       11.75278
H          4.04900        6.62780       10.87352
H          4.26700        7.12683       12.54594
C          4.31028        9.37974       11.18934
H          3.54522        9.16603       10.44933
H          4.72420       10.36147       10.98292
H          3.85016        9.40227       12.17377
C          8.02000        5.92589       10.26333
H          7.45299        5.73696       11.18831
H          8.98572        6.35577       10.54947
C          8.20989        4.63136        9.55726
H          9.16836        4.12915        9.66678
C          7.24843        4.04084        8.84021
H          7.41351        3.06827        8.39611
C          5.94329        4.72386        8.55087
H          5.71989        5.39274        9.42169
H          6.09814        5.35996        7.65205
C          4.32756        3.48782        6.70964
C          5.34784        3.41307        5.76629
C          5.14604        3.10862        4.42456
C          3.86390        2.85613        3.95936
C          2.81138        2.92098        4.86283
C          3.05741        3.22933        6.19632
C          4.76577        2.45679        9.19515
C          4.65856        1.15036        8.73655
C          4.84656        0.04147        9.55777
C          5.16232        0.21775       10.89845
C          5.28980        1.51032       11.39368
C          5.09387        2.58632       10.54189
C          3.31059        4.69669        8.84358
C          2.23238        4.16796        9.55311
C          1.13003        4.92528        9.94027
C          1.06113        6.27512        9.61118
C          2.11923        6.84391        8.91517
C          3.20869        6.05525        8.56928
B          4.58745        3.80822        8.29990
