69
CSD_code = BIKYOK | q = 0 | S = 0 | Stoichiometry = C24H38O5SiW | MND = 10
W          2.19636        1.01630        2.70188
Si         0.83051       -3.70229        3.11765
C          0.87382        2.38870        2.23808
C          0.50602        0.19129        2.09555
C          2.19029        2.16699        4.66887
C          1.21352        1.12624        4.74176
C          1.79106       -0.17266        4.59306
C         -0.24838        1.39283        4.81889
C         -0.63238        2.72921        5.43023
C         -2.03507        2.68091        6.03831
C         -2.73840        4.05231        6.09306
C         -1.88353        5.09194        6.81473
C         -3.14418        4.53231        4.70294
C          0.99432       -1.45118        4.62352
C          1.10404       -2.10610        5.99961
C         -1.06181       -3.52938        2.97579
C          1.24202       -5.13759        4.31699
C          1.64415       -4.04109        1.40919
C          3.16850       -4.01582        1.52868
C          1.22468       -5.41469        0.88722
C          1.19670       -2.98951        0.39296
C          4.23195       -0.20684        2.55437
C          3.63974       -0.18183        1.27755
C          3.55789        1.17578        0.84841
C          4.11874        1.98185        1.88067
C          4.51848        1.12390        2.93330
O          0.06399        3.16132        1.94946
O         -0.48363       -0.19287        1.65794
O         -1.08874        0.60448        4.43797
O         -1.87132        2.14244        7.34018
O          1.51105       -2.29045        3.60321
H         -2.74103        1.99243        7.72467
H          3.12254        1.99923        5.20683
H          1.85359        3.19560        4.73808
H          2.77071       -0.30055        5.06676
H          0.07463        3.00347        6.21131
H         -0.59622        3.46778        4.62780
H         -2.64683        1.99830        5.42891
H         -3.65552        3.90314        6.67914
H         -1.51506        4.68375        7.75297
H         -1.03346        5.38496        6.20407
H         -2.47179        5.98109        7.02934
H         -3.74834        3.78161        4.19918
H         -3.72489        5.44852        4.78093
H         -2.27298        4.73658        4.08554
H         -0.05796       -1.25132        4.40588
H          0.45013       -2.96991        6.05403
H          2.12662       -2.42963        6.18009
H          0.80998       -1.39148        6.76414
H         -1.32373       -2.61299        2.45462
H         -1.51699       -4.35726        2.44234
H         -1.52436       -3.48449        3.95791
H          2.27619       -5.09517        4.64653
H          0.61720       -5.12054        5.20484
H          1.08923       -6.10094        3.84275
H          3.63566       -4.14085        0.55115
H          3.49878       -3.07436        1.95598
H          3.51267       -4.82117        2.17351
H          1.65441       -5.59337       -0.09836
H          1.56551       -6.20491        1.55095
H          0.14337       -5.48361        0.80258
H          1.71931       -3.12246       -0.55557
H          0.12916       -3.07225        0.20519
H          1.39262       -1.98662        0.76447
H          4.52019       -1.09560        3.09735
H          3.42774       -1.04293        0.66042
H          3.32431        1.50532       -0.15821
H          4.34028        3.03796        1.80494
H          5.10947        1.41868        3.79080
