60
CSD_code = BOLCEL | q = 0 | S = 0 | Stoichiometry = C23H31Cl2P2SiV | MND = 9
V          6.19639        2.27887        6.60483
C          8.29663        3.06944        6.60065
H          8.61992        3.99888        7.04988
C          6.98978        3.98730        9.71483
Si         5.81098        2.70090        8.93561
C          6.81062        5.33653        9.42069
H          5.98316        5.63658        8.79500
Cl         6.31657        0.90172        9.94035
C          3.29964        4.09900        9.04978
H          3.67612        4.59982        8.17008
P          5.21691        0.15174        7.08511
P          4.20914        2.24632        5.36842
C          2.32798        2.82753       11.29913
H          1.95448        2.32918       12.18248
C          8.93708        4.58466       11.01450
H          9.76760        4.28484       11.63836
C          7.67677        6.29494        9.91253
H          7.52063        7.33723        9.67210
C          4.08174        3.12288        9.66183
C          8.74648        5.92119       10.70981
H          9.42730        6.66865       11.09198
C          7.89103        0.86021        6.26278
H          7.95645       -0.21143        6.38181
C          7.90559        2.89236        5.26158
H          7.86182        3.67089        4.51008
C          1.56203        3.79719       10.67546
H          0.58893        4.05752       11.06671
C          2.05399        4.43481        9.54855
H          1.46452        5.19725        9.05860
C          8.29883        1.81050        7.21841
H          8.67788        1.58545        8.20488
C          8.06658        3.62945       10.52008
H          8.22245        2.59004       10.77071
C          7.64132        1.53380        5.05165
H          7.42497        1.06356        4.10061
Cl         5.51499        4.39767        6.26218
C          3.57408        2.49657       10.79674
H          4.16458        1.74236       11.29536
C          3.51101        0.55577        5.00267
H          2.58307        0.43609        5.56765
H          3.28268        0.44237        3.93857
C          3.67024        0.11603        8.07590
H          3.06268       -0.74380        7.78846
H          3.11811        1.04378        7.92809
H          3.93940        0.03607        9.12693
C          2.64478        3.16818        5.65978
H          1.90692        2.85155        4.92115
H          2.83486        4.23493        5.56239
H          2.27563        2.96504        6.66465
C          4.53998       -0.45591        5.47466
H          5.37657       -0.51202        4.77096
H          4.11602       -1.45959        5.59140
C          4.56489        2.80169        3.65419
H          3.65274        2.75690        3.05661
H          5.32115        2.15111        3.21523
H          4.93855        3.82451        3.67828
C          5.97532       -1.42548        7.65692
H          5.17879       -2.09631        7.97920
H          6.64527       -1.23997        8.49304
H          6.52680       -1.88685        6.83799
