81
CSD_code = BOLYAD | q = 0 | S = 0 | Stoichiometry = C30H47ClSi2Ti | MND = 12
Ti        13.97229        0.86436        9.79888
Cl        13.90431       -0.71937        8.20742
Si        18.49993        2.52396        9.50217
Si        18.08626       -2.65518        8.38594
C         14.34513        3.04895        9.29141
C         13.13065        3.15235       10.01256
C         12.13307        2.46126        9.27028
C         12.72215        1.97619        8.07814
C         14.09255        2.33947        8.07604
C         15.71221        3.51150        9.70444
C         12.87311        4.16831       11.08690
H         13.75722        4.34958       11.69313
H         12.05059        3.88878       11.73997
H         12.60080        5.11440       10.60981
C         10.64816        2.51796        9.47633
H         10.20282        3.14071        8.69613
H         10.38954        2.95370       10.43741
H         10.19284        1.52967        9.39778
C         11.96215        1.37406        6.93625
H         11.42303        2.15860        6.39769
H         11.23413        0.64404        7.29000
H         12.63579        0.87627        6.24286
C         15.02346        2.19063        6.90659
H         15.20108        1.13794        6.67429
H         15.98292        2.66010        7.11247
H         14.58288        2.66348        6.02613
C         14.87613       -0.07661       11.76926
C         13.98147        0.95651       12.17694
C         12.66751        0.58259       11.78912
C         12.76021       -0.64707       11.08063
C         14.11497       -1.07693       11.10732
C         16.26572       -0.23081       12.31336
H         16.20339       -0.52221       13.36597
H         16.82533        0.70173       12.25384
H         16.81616       -0.99920       11.77709
C         14.37655        2.01404       13.16568
H         14.68290        1.53539       14.09955
H         13.55225        2.68443       13.39127
H         15.22493        2.59790       12.80562
C         11.39597        1.10188       12.39387
H         10.53929        0.94935       11.74279
H         11.45740        2.15501       12.65397
H         11.20688        0.54848       13.31863
C         11.60825       -1.46147       10.56873
H         11.35877       -2.25223       11.28074
H         11.86191       -1.92902        9.61641
H         10.72106       -0.84588       10.42390
C         14.60702       -2.44034       10.73061
H         15.60612       -2.39002       10.30107
H         13.94548       -2.90700       10.00435
H         14.64103       -3.07160       11.62270
C         16.62191        2.30241        9.65498
C         16.03232        1.09362        9.61508
C         16.73353       -0.07348        9.32399
C         17.32201       -1.08334        8.97901
C         18.94719        4.35395        9.83663
H         18.57886        4.69240       10.80019
H         18.54044        5.01602        9.07871
H         20.02423        4.48642        9.83605
C         19.05967        2.05235        7.73806
H         20.14262        2.03765        7.66168
H         18.68922        2.75193        6.99419
H         18.69285        1.06463        7.47767
C         19.42106        1.43934       10.77560
H         19.13981        0.39750       10.66588
H         19.20862        1.73859       11.79771
H         20.49494        1.51041       10.63270
C         19.26003       -2.24205        6.93997
H         18.71473       -1.80539        6.10867
H         19.76590       -3.13034        6.57189
H         20.02254       -1.53051        7.24280
C         19.08208       -3.41571        9.82883
H         19.86455       -2.74198       10.16527
H         19.55635       -4.34685        9.53247
H         18.44517       -3.63046       10.68225
C         16.71431       -3.85493        7.81959
H         16.32287       -4.43628        8.64945
H         17.07245       -4.55263        7.06765
H         15.88418       -3.30216        7.38999
H         15.69634        3.94934       10.70824
H         16.08675        4.28516        9.02437
