52
CSD_code = BUKLID | q = 0 | S = 0 | Stoichiometry = C23H20N2O5SiW | MND = 6
Si        -0.00004       11.64398        4.29461
W         -0.00074        9.17035        4.29465
O         -0.00206        6.04601        4.29344
O         -0.00004        9.03588        1.14840
O          3.13009        8.88162        4.29581
N          0.00005       12.89831        3.09333
C          0.00002       14.17379        3.62269
H         -0.00006       15.02772        2.97133
C          0.00015       12.68032        1.69492
C          1.21615       12.54762        1.02450
C          1.19844       12.30172       -0.34071
H          2.13282       12.19673       -0.87208
C          0.00037       12.18139       -1.02035
H          0.00045       11.98655       -2.08213
C          2.50715       12.64122        1.77938
H          2.51147       13.50695        2.43908
H          3.34666       12.71539        1.09337
H          2.64281       11.75149        2.39636
C         -0.00166        7.18823        4.29413
C         -0.00045        9.12660        2.28929
C          1.99867        9.05940        4.29535
O         -0.00188        9.03544        7.44092
O         -3.13173        8.88320        4.29382
N          0.00014       12.89843        5.49573
C          0.00006       14.17387        4.96626
H          0.00002       15.02786        5.61754
C          0.00030       12.68045        6.89414
C         -1.21556       12.54690        7.56463
C          1.21632       12.54764        7.56449
C         -1.21573       12.54679        1.02447
C         -1.19759       12.30098        8.92984
C          1.19866       12.30169        8.92969
C         -1.19780       12.30088       -0.34074
H         -2.13186       12.19535        9.46127
H          2.13306       12.19661        9.46102
H         -2.13210       12.19522       -0.87213
C          0.00061       12.18145        9.60939
H          0.00074       11.98660       10.67116
C         -2.50667       12.63947        6.80981
C          2.50728       12.64110        6.80952
C         -2.50683       12.63945        1.77929
H         -2.51122       13.50444        6.14913
H          2.51159       13.50677        6.14973
H         -2.51129       13.50442        2.43998
H         -3.34611       12.71425        7.49584
H          3.34685       12.71529        7.49546
H         -3.34625       12.71433        1.09324
H         -2.64224       11.74900        6.19388
H          2.64284       11.75131        6.19261
H         -2.64251       11.74899        2.39522
C         -0.00110        9.12636        6.30003
C         -2.00026        9.06067        4.29429
