96
CSD_code = BUPBEU | q = 0 | S = 0 | Stoichiometry = C43H42Cl2N6Si2Zr | MND = 7
Zr        15.14651        9.03621        6.82131
Si        15.62417       11.82566        5.80867
Si        15.80163        7.42883        3.96428
Cl        17.48511        9.11263        7.41125
Cl        12.94727        9.00349        5.89016
N         14.86311        9.77232        8.85912
N         14.76104       11.15907        7.13537
N         15.92754       10.24188        5.06090
N         17.09577        8.66603        3.85323
N         15.65350        7.27917        5.65418
N         14.60628        7.07221        7.59522
C         14.96287        9.38152       10.19153
C         15.66028        8.20497       10.48293
H         16.16475        7.68350        9.67438
C         15.71083        7.73554       11.77994
H         16.25040        6.82588       11.99917
C         15.07338        8.42422       12.80072
H         15.11070        8.05024       13.81278
C         14.38773        9.59329       12.51725
H         13.88975       10.13350       13.30938
C         14.32837       10.07477       11.22338
H         13.77957       10.97776       10.99545
C         15.04849       11.00534        8.41472
C         15.60290       12.10318        9.23513
C         15.02794       13.36857        9.18687
H         14.15785       13.52463        8.56578
C         15.56532       14.40034        9.93458
H         15.11094       15.37990        9.90526
C         16.68693       14.17832       10.71725
H         17.10622       14.98581       11.29927
C         17.27466       12.92394       10.74813
H         18.15672       12.75527       11.34755
C         16.73558       11.88347       10.01377
H         17.19818       10.90668       10.01734
C         14.41726       12.76147        4.66485
H         14.87573       12.98507        3.70805
H         14.11311       13.70018        5.11261
H         13.52403       12.16999        4.48678
C         17.13665       12.88444        6.31060
H         17.64896       13.30201        5.45118
H         17.85087       12.29049        6.87462
H         16.81966       13.70810        6.94278
C         16.96056        9.89682        4.36953
C         18.06291       10.84585        4.05717
C         17.93161       11.72545        2.99093
H         17.02486       11.71945        2.40352
C         18.95988       12.60028        2.68713
H         18.85770       13.28218        1.85576
C         20.11789       12.59920        3.44637
H         20.92071       13.28030        3.20566
C         20.24385       11.72802        4.51595
H         21.14334       11.73233        5.11293
C         19.22132       10.84892        4.82459
H         19.30106       10.17722        5.66616
C         18.32465        8.33246        3.22796
C         18.53001        8.59653        1.88222
H         17.74897        9.07435        1.31021
C         19.73087        8.24849        1.28934
H         19.89208        8.45749        0.24225
C         20.72234        7.63393        2.03494
H         21.65865        7.36504        1.56950
C         20.51163        7.36342        3.37706
H         21.28358        6.88285        3.95918
C         19.31402        7.70941        3.97568
H         19.12888        7.51474        5.02188
C         14.29396        8.13798        3.02614
H         14.10967        9.16990        3.32200
H         13.39328        7.57761        3.26086
H         14.43510        8.10911        1.94895
C         16.49734        5.91034        3.04412
H         17.36216        5.48943        3.54577
H         16.80126        6.17413        2.03752
H         15.74243        5.13544        2.97278
C         14.83576        6.55343        6.40822
C         14.16445        5.33505        5.90492
C         14.89164        4.21488        5.52227
H         15.96728        4.22268        5.61705
C         14.23237        3.09771        5.04082
H         14.79730        2.22365        4.75187
C         12.85182        3.10017        4.92955
H         12.34035        2.22693        4.55246
C         12.12766        4.22175        5.30051
H         11.05209        4.22555        5.20872
C         12.77707        5.33902        5.79329
H         12.22765        6.22686        6.07321
C         13.76148        6.49936        8.54968
C         13.91245        5.18632        8.99153
H         14.68029        4.56344        8.55537
C         13.09732        4.69976        9.99681
H         13.22337        3.68288       10.33893
C         12.12907        5.50809       10.56678
H         11.49988        5.12423       11.35558
C         11.96975        6.81172       10.12187
H         11.21065        7.44169       10.56119
C         12.77741        7.31112        9.11962
H         12.65830        8.32620        8.74978
