71
CSD_code = BUQZES | q = 0 | S = 0 | Stoichiometry = C26H39MoN3Si2 | MND = 7
Mo        11.45739       10.92713       12.71248
Si        13.98454        9.60372       10.95562
Si         9.69389       13.54380       11.55255
N         10.41085        9.93820       11.71239
N         13.08544       10.98841       11.50576
N         11.21088       12.71895       11.81359
C          9.79817        9.40945       10.64847
C          8.88793        8.34399       10.73524
H          8.66044        7.92938       11.70829
C          8.29168        7.83878        9.59768
H          7.59199        7.01894        9.68070
C          8.58357        8.37245        8.35306
H          8.11424        7.97124        7.46727
C          9.48214        9.42684        8.25098
H          9.70983        9.84450        7.28018
C         10.08276        9.94420        9.37614
H         10.78708       10.76669        9.33131
C         13.39853       12.25692       11.06693
C         12.37101       13.21343       11.25081
C         12.59478       14.53142       10.87279
H         11.82414       15.26834       11.02958
C         13.80542       14.90751       10.31093
H         13.96488       15.93761       10.02747
C         14.80237       13.96964       10.11605
H         15.74521       14.26126        9.67684
C         14.60069       12.65039       10.49105
H         15.38488       11.92473       10.34863
C         15.79502        9.57829       11.61181
H         15.92922       10.23736       12.46549
H         16.49951        9.89164       10.84809
H         16.08252        8.57723       11.91845
C         13.13775        8.03294       11.63123
H         13.53890        7.73002       12.59220
H         13.29251        7.20700       10.94591
H         12.06664        8.17979       11.73708
C         13.96964        9.51488        9.04496
H         12.99079        9.21083        8.68565
H         14.69662        8.79637        8.67971
H         14.19883       10.47739        8.59918
C          9.53671       15.16036       12.58512
H         10.02078       15.07151       13.55421
H          8.49108       15.39382       12.76111
H          9.97450       16.01634       12.08183
C          9.46847       13.91685        9.68882
H         10.38969       14.26767        9.23553
H          8.70855       14.67537        9.53005
H          9.16043       13.02174        9.15639
C          8.24785       12.42196       12.09643
H          8.54475       11.37844       12.12673
H          7.42499       12.51314       11.39616
H          7.86575       12.69784       13.07323
C         11.64887        9.65941       14.72301
C         10.47201       10.42854       14.72414
C         10.60547       11.84199       14.49532
H          9.70768       12.43285       14.67113
C         11.84982       12.43915       15.14313
H         11.80827       12.29324       16.23398
H         11.89808       13.51691       14.95632
C         13.09881       11.75387       14.57665
H         13.41719       12.27315       13.65246
H         13.93305       11.85368       15.28358
C         12.85027       10.27477       14.28207
H         13.75398        9.66673       14.30852
C         11.59663        8.17693       14.98306
H         11.00441        7.65918       14.22714
H         11.13854        7.98571       15.95458
H         12.59649        7.74780       14.98509
C          9.12910        9.79679       14.97371
H          8.96846        8.93171       14.32882
H          8.33282       10.51457       14.78776
H          9.05438        9.46214       16.01064
