63
CSD_code = CAMHAA | q = 0 | S = 0 | Stoichiometry = C23H32CrO6Si | MND = 9
Cr         7.91289       -6.14400        2.74902
Si        13.17484       -1.71507        0.39607
O         11.98903       -2.98331        3.04040
O         12.22768       -3.03101        0.73208
O         11.22488       -5.09753        3.06603
O          6.04002       -7.38763        4.70047
O          7.96383       -8.97448        1.83191
O          9.81150       -7.40922        4.65558
C         11.37017       -3.13377        1.80485
H         10.59963       -2.35215        1.72877
C         10.76865       -4.56709        1.84293
H         11.17856       -5.13309        0.99301
C         12.28510       -4.28939        3.54121
C         12.26660       -4.25397        5.06781
H         11.27473       -3.94203        5.39681
H         12.98963       -3.50250        5.38842
C         12.60970       -5.62349        5.64590
H         12.62200       -5.55988        6.73526
H         11.83517       -6.33176        5.35202
C         13.95993       -6.10764        5.12892
H         14.74849       -5.42550        5.45728
H         14.17642       -7.09598        5.53694
C         13.93894       -6.16918        3.60560
H         13.16105       -6.86538        3.28709
H         14.89840       -6.52407        3.22452
C         13.63946       -4.79047        3.02607
H         14.40100       -4.07269        3.33379
H         13.61870       -4.82000        1.93572
C          9.26922       -4.59323        1.83715
C          8.58006       -3.99338        2.91681
H          9.15119       -3.48100        3.68142
C          7.18918       -3.99592        2.94713
H          6.65840       -3.47686        3.73624
C          6.46488       -4.60244        1.89776
H          5.38301       -4.54913        1.89304
C          7.14081       -5.18406        0.82763
H          6.58791       -5.58477       -0.01330
C          8.55142       -5.18472        0.79841
H          9.07364       -5.58113       -0.06468
C          6.74002       -6.86848        3.94130
C          7.93733       -7.86252        2.14551
C          9.11475       -6.86671        3.91453
C         14.61393       -1.52396        1.62992
H         14.23566       -1.49092        2.64753
H         15.17176       -0.61002        1.45263
H         15.31260       -2.35319        1.56563
C         12.10954       -0.13254        0.45111
H         11.82967        0.09945        1.47505
H         11.19351       -0.24745       -0.12239
H         12.63841        0.72873        0.05714
C         14.47297       -3.50488       -1.39822
H         14.79426       -3.75156       -2.40999
H         13.79459       -4.28118       -1.05410
H         15.34972       -3.50354       -0.75508
C         14.77008       -1.07757       -1.84397
H         15.12007       -1.29880       -2.85157
H         15.63325       -1.03881       -1.18502
H         14.30585       -0.09481       -1.85400
C         12.60202       -2.17952       -2.35535
H         12.94603       -2.45699       -3.35150
H         12.12262       -1.20574       -2.42125
H         11.86228       -2.90809       -2.03230
C         13.77826       -2.14135       -1.37638
