88
CSD_code = CAQZAX | q = 0 | S = 0 | Stoichiometry = C29H53NO2PReSi | MND = 8
C          9.34329        6.50647       14.54935
C         10.12152        7.13832       13.54049
H          9.74706        7.85960       12.83310
C         11.49276        6.87152       13.82528
H         12.33587        7.32464       13.32372
C         11.54982        6.01788       14.93844
H         12.44814        5.75029       15.47364
C         10.21626        5.78286       15.38761
H          9.92890        5.30957       16.31578
C          5.34313        6.03965       14.44144
H          5.38488        5.07484       13.94570
H          4.38246        6.48511       14.20845
H          5.37893        5.86480       15.51194
C          7.01418        6.98645       11.98734
H          7.49768        7.85148       11.54210
H          6.06822        6.84672       11.47407
H          7.63691        6.12146       11.77022
C          6.42394        9.00714       14.35089
C          7.64510        9.88687       14.06663
H          7.88800        9.88804       13.00555
H          8.51324        9.53113       14.61905
H          7.45332       10.91701       14.36785
C          6.10114        9.10003       15.84468
H          5.94195       10.13773       16.13870
H          6.91823        8.69844       16.44055
H          5.20033        8.53753       16.07864
C          5.23371        9.54985       13.55995
H          5.02688       10.58235       13.84095
H          4.34170        8.95970       13.75667
H          5.43087        9.52032       12.49109
C          9.13157        2.22416       15.17565
H          9.39607        2.77798       16.08625
C          7.80651        2.80230       14.67896
H          7.47944        2.28043       13.78072
H          7.93360        3.85603       14.41932
C          6.74471        2.65954       15.76713
H          7.03849        3.24279       16.64314
H          5.79473        3.05738       15.40823
C          6.57573        1.19616       16.16596
H          6.21682        0.62688       15.30557
H          5.83002        1.10887       16.95861
C          7.90411        0.61280       16.63783
H          7.77880       -0.44066       16.89737
H          8.23331        1.13968       17.53690
C          8.96473        0.75158       15.54624
H          8.64122        0.18893       14.67032
H          9.90992        0.33126       15.89575
C         10.60678        1.35744       12.60862
H         11.32733        1.83950       11.93189
C         11.08845       -0.06926       12.87445
H         12.05638       -0.07226       13.37501
H         10.37602       -0.60776       13.49964
C         11.24010       -0.80398       11.54089
H         11.99926       -0.29908       10.94063
H         11.58068       -1.82518       11.72539
C          9.92492       -0.82445       10.77040
H         10.06355       -1.33668        9.81682
H          9.17737       -1.38003       11.34178
C          9.43122        0.59918       10.53528
H          8.47715        0.58126       10.00651
H         10.14868        1.14077        9.91805
C          9.26949        1.32617       11.86731
H          8.93967        2.35267       11.69839
H          8.52316        0.80053       12.46384
C         12.05439        2.09629       15.02785
H         12.03895        1.00528       15.12507
C         12.09626        2.68948       16.43472
H         12.04746        3.77628       16.38041
H         11.24602        2.33971       17.02387
C         13.38434        2.28046       17.14822
H         13.40146        1.19395       17.26653
H         13.40493        2.72400       18.14633
C         14.61100        2.71855       16.35582
H         14.62501        3.80787       16.27663
H         15.51979        2.41190       16.87729
C         14.57473        2.10945       14.95856
H         14.62064        1.02031       15.03753
H         15.44070        2.43941       14.38235
C         13.29418        2.51653       14.23639
H         13.27207        2.07289       13.23958
H         13.28050        3.60117       14.10617
N         11.67132        4.41053       11.90005
O         12.47476        4.13958       11.07060
O          8.01377        6.62661       14.77268
Si         6.75985        7.17038       13.86638
P         10.55313        2.58440       14.02625
Re        10.56867        4.85529       13.18056
H          9.31514        4.54027       12.25416
