55
CSD_code = CARQIX | q = 0 | S = 0 | Stoichiometry = C21H28ClCoN2OSi | MND = 7
Co         0.84987        3.39034        9.55187
Cl         3.11228        0.24938        9.29388
Si         2.33928        2.03874        8.63072
O          0.97010        5.21447        7.33066
N          2.31222        1.69591        6.80304
C          3.39377        2.42386        6.59986
N          3.85315        2.72845        7.79901
C          3.95572        2.83369        5.30537
C          4.90675        2.04801        4.66307
H          5.23539        1.12693        5.12190
C          5.42591        2.44902        3.44443
H          6.16387        1.83548        2.94969
C          5.00077        3.63157        2.86222
H          5.40768        3.94212        1.91175
C          4.05373        4.41567        3.50028
H          3.72018        5.33795        3.04906
C          1.36200        1.12448        5.87335
C          3.52946        4.02160        4.71882
H          2.78982        4.62812        5.22032
C          0.68933        2.21712        5.03486
H          1.39136        2.66119        4.33388
H          0.30189        2.99619        5.68717
H         -0.13661        1.79142        4.47121
C          0.30363        0.41258        6.71718
H         -0.42463       -0.07263        6.07337
H         -0.20933        1.13148        7.35199
H          0.76905       -0.33896        7.34872
C          2.06139        0.10570        4.96463
H          1.32456       -0.40861        4.35351
H          2.58882       -0.62946        5.56820
H          2.77331        0.59609        4.30555
C          4.96169        3.56375        8.20836
C          4.76522        5.00577        7.72767
H          4.85778        5.07386        6.64685
H          5.51551        5.64972        8.17883
H          3.77925        5.35945        8.02020
C          4.98147        3.54042        9.73757
H          5.07085        2.51893       10.09684
H          4.05974        3.96734       10.12643
H          5.82258        4.11820       10.11071
C          6.28109        2.99416        7.67216
H          6.32543        3.06675        6.58836
H          6.37846        1.94956        7.95956
H          7.11739        3.54962        8.08865
C          0.87951        4.51959        8.25409
C         -0.94840        2.77946       10.57236
H         -1.87685        2.37955       10.19706
C         -0.64894        4.14917       10.77516
H         -1.33372        4.96844       10.61205
C          0.57484        4.24559       11.51060
H          0.96678        5.14625       11.95628
C          1.07375        2.95309       11.65788
H          1.93440        2.65618       12.23685
C          0.14812        2.04805       11.04907
H          0.21200        0.97272       11.11885
