62
CSD_code = CAXYEG | q = 0 | S = 0 | Stoichiometry = C24H30B2Cl2N2SiZr | MND = 12
Zr         3.24430        2.55484        7.86215
Cl         3.53662        0.55549        6.62847
Cl         2.24707        1.26684        9.55701
Si         3.39571        5.69436        8.48951
N          1.44508        2.83396        6.16763
N          5.34799        2.05036        8.91315
B          2.34514        3.97455        6.14838
B          4.75582        3.14878        9.68286
C          2.16925        4.64141        7.49829
C          1.14203        3.87754        8.16459
H          0.72156        4.10287        9.13903
C          0.71783        2.84261        7.35790
H         -0.08944        2.13921        7.52641
C          1.02808        1.97590        5.07430
H          0.74322        0.99114        5.46587
H          1.86836        1.84140        4.38656
C         -0.14724        2.59755        4.31871
H         -0.99374        2.74720        4.98539
H         -0.45621        1.95116        3.50170
H          0.14721        3.56237        3.91207
C          3.33261        4.27925        4.96671
C          3.40678        5.54830        4.38757
H          2.74413        6.32200        4.74704
C          4.29927        5.82857        3.36826
H          4.33495        6.81984        2.93961
C          5.14538        4.84008        2.89500
H          5.84298        5.05491        2.09895
C          5.09049        3.57187        3.45077
H          5.74883        2.79592        3.08714
C          4.19922        3.29555        4.47276
H          4.18167        2.29653        4.90185
C          4.65755        4.29260        8.68460
C          5.31940        3.82401        7.48956
H          5.54574        4.43139        6.62133
C          5.73474        2.51804        7.65394
H          6.34509        1.91006        6.99550
C          5.75528        0.72273        9.34236
H          5.95025        0.10332        8.45738
H          4.93605        0.25594        9.90184
C          7.00705        0.78951       10.21679
H          7.82486        1.25182        9.66804
H          7.30971       -0.20872       10.52140
H          6.80646        1.38373       11.10490
C          4.52071        3.19697       11.23398
C          4.75849        4.41611       11.88257
H          5.07637        5.26142       11.29059
C          4.61458        4.55914       13.24917
H          4.80450        5.51642       13.71378
C          4.23009        3.47767       14.02381
H          4.11408        3.58339       15.09275
C          4.00109        2.25715       13.41246
H          3.70446        1.40422       14.00646
C          4.14960        2.11936       12.04407
H          3.94655        1.15562       11.60307
C          2.59051        6.25683       10.12556
H          3.22966        6.94818       10.66163
H          2.39264        5.41468       10.78155
H          1.65189        6.76603        9.93354
C          4.09485        7.18878        7.53037
H          3.32007        7.92242        7.33800
H          4.51531        6.89274        6.57580
H          4.87593        7.67821        8.10187
