66
CSD_code = CEGTUE | q = 0 | S = 0 | Stoichiometry = C33H29N2RhSi | MND = 5
Rh         4.82110        4.17433        2.24332
Si         4.22974        2.38708        3.53245
N          3.13123        3.65510        1.06826
N          5.88897        2.66198        1.07165
C          2.88189        4.30020       -0.04789
C          1.70958        4.13106       -0.79367
C          0.75698        3.26271       -0.33358
C          1.00071        2.53910        0.85048
C          0.07083        1.62826        1.39022
C          0.36179        0.94827        2.53921
C          1.59170        1.14214        3.18506
C          2.52719        2.02185        2.70468
C          2.23048        2.74966        1.52840
C          6.42195        2.96079       -0.08862
C          7.23632        2.08274       -0.81656
C          7.51577        0.85260       -0.28733
C          6.93762        0.48811        0.94572
C          7.16548       -0.76329        1.55339
C          6.56226       -1.07023        2.74084
C          5.69271       -0.15353        3.35094
C          5.44081        1.07750        2.80226
C          6.09185        1.42695        1.59623
C          4.09873        2.11553        5.43040
C          3.75503        5.60477        3.34972
C          2.31685        5.57358        3.03464
C          1.42399        4.78632        3.76871
C          0.08561        4.72170        3.43913
C         -0.40860        5.44940        2.36805
C          0.45244        6.25672        1.64373
C          1.79120        6.32210        1.97663
C          6.55220        4.76362        3.23626
C          7.27649        5.16433        2.02222
C          6.79561        6.21278        1.21908
C          7.42059        6.54848        0.03177
C          8.54678        5.85820       -0.38736
C          9.04315        4.82708        0.39622
C          8.41696        4.48240        1.57694
H          3.63543        5.00671       -0.38358
H          1.56551        4.69775       -1.70044
H         -0.17671        3.12251       -0.85904
H         -0.87042        1.48354        0.87960
H         -0.35370        0.25380        2.95580
H          1.79884        0.58443        4.08605
H          6.21922        3.94932       -0.48547
H          7.64435        2.39748       -1.76427
H          8.16488        0.15411       -0.79644
H          7.82097       -1.46802        1.06171
H          6.74250       -2.02650        3.21065
H          5.21165       -0.43163        4.27632
H          3.77027        1.10744        5.66122
H          5.06007        2.27412        5.90440
H          3.39133        2.80659        5.87216
H          3.90826        5.47664        4.42448
H          4.17805        6.57153        3.04639
H          1.79980        4.21384        4.60438
H         -0.58174        4.09910        4.01940
H         -1.45575        5.39583        2.10641
H          0.07479        6.84058        0.81470
H          2.45074        6.96436        1.40616
H          6.36510        5.61177        3.89845
H          7.09537        3.99299        3.79056
H          5.94284        6.79296        1.55555
H          7.03258        7.35927       -0.57104
H          9.03795        6.12621       -1.31175
H          9.92750        4.29024        0.08054
H          8.81067        3.67334        2.17831
