92
CSD_code = CESPEX | q = 0 | S = 0 | Stoichiometry = C25H58N6Si2Zr | MND = 5
Zr         5.46826        8.66802        4.65705
Si         4.57858        6.07838        2.92771
Si         7.18428        5.80176        4.48643
N          6.49135        9.66092        2.90073
N          4.58800       10.49583        3.73380
N          5.80485       11.77170        2.07002
N          5.86852        6.69882        3.86572
N          3.95742        8.00711        5.88461
N          6.53591        9.67728        6.10552
C          7.42479        9.52413        1.79331
H          7.38634       10.41094        1.14295
C          7.02361        8.29589        0.96661
H          6.00306        8.43487        0.60138
H          7.03446        7.42852        1.63078
C          7.97483        8.08720       -0.20760
H          7.67582        7.20205       -0.77361
H          7.91858        8.94712       -0.88104
C          9.40835        7.92580        0.28611
H          9.47805        7.02132        0.89228
H         10.08711        7.81439       -0.56271
C          9.81966        9.13217        1.12374
H          9.81634       10.02638        0.49463
H         10.83612        8.99476        1.49995
C          8.86063        9.33605        2.29432
H          9.17467       10.20946        2.87264
H          8.88209        8.46343        2.95239
C          5.62471       10.65719        2.91911
C          6.87020       12.70119        2.35285
H          6.50995       13.57603        2.91465
H          7.31189       13.05712        1.41651
H          7.63771       12.20654        2.94280
C          4.70690       12.31567        1.31297
H          3.94462       11.54955        1.19429
H          5.07591       12.59723        0.32038
H          4.25556       13.20814        1.76801
C          3.84051       11.63188        4.24851
H          4.27358       12.58353        3.90325
C          2.36711       11.57761        3.81529
H          2.29477       11.65348        2.72868
H          1.95516       10.60928        4.10673
C          1.55587       12.69356        4.46665
H          1.93996       13.66328        4.13942
H          0.51361       12.62439        4.14720
C          1.64531       12.60237        5.98602
H          1.23034       11.64825        6.31669
H          1.05916       13.40287        6.44280
C          3.10146       12.70032        6.42759
H          3.16859       12.62312        7.51455
H          3.49812       13.67744        6.13819
C          3.93580       11.59626        5.78210
H          3.60344       10.60753        6.12145
H          4.98658       11.70625        6.05913
C          3.52485        7.60515        2.41328
H          2.46100        7.41293        2.52575
H          3.69141        7.87233        1.37225
H          3.79655        8.46533        3.04037
C          5.08941        5.14005        1.32694
H          5.76255        5.71069        0.69836
H          4.21875        4.88857        0.72976
H          5.58587        4.20992        1.58110
C          3.41341        4.79378        3.76611
H          3.98435        3.94787        4.13349
H          2.68138        4.41085        3.06105
H          2.86963        5.21012        4.60743
C          8.43544        5.15842        3.17159
H          7.91890        4.74928        2.31059
H          9.06089        4.37137        3.58141
H          9.09572        5.94360        2.81793
C          6.74182        4.23894        5.51493
H          5.93968        4.43230        6.21909
H          7.59589        3.87493        6.07791
H          6.41813        3.43575        4.86100
C          8.13941        7.02831        5.60749
H          8.22140        7.99200        5.10134
H          9.14190        6.67742        5.83824
H          7.62090        7.18532        6.55251
C          2.52393        8.07228        5.71301
H          2.09314        7.10412        5.38989
H          2.26281        8.82363        4.96386
H          2.01484        8.33699        6.66271
C          4.27467        6.93470        6.80547
H          3.80060        7.10141        7.79433
H          5.35733        6.86465        6.94655
H          3.90920        5.95485        6.44462
C          6.27831        9.66403        7.53166
H          7.07383        9.13404        8.09525
H          5.31912        9.18479        7.73641
H          6.24324       10.69142        7.94319
C          7.69278       10.50513        5.84358
H          7.53897       11.54543        6.19970
H          7.89761       10.54083        4.77031
H          8.60037       10.13475        6.36309
