120
CSD_code = CIFZIA | q = 0 | S = 0 | Stoichiometry = C29H78ClOP2RhSi8 | MND = 4
Rh         3.15535        2.21696        4.05318
Cl         1.05395        3.02361        3.68797
O          5.87917        1.09843        4.45281
C          4.82017        1.53787        4.30259
P          3.72361        3.77789        2.48223
C          5.43712        4.40312        2.24109
C          3.10635        3.71868        0.73778
Si         6.61799        3.08907        1.46823
Si         6.06211        5.37615        3.77682
Si         2.41644        5.45147        0.24700
Si         1.92486        2.26258        0.25078
C          5.71517        1.47212        1.00740
C          8.11524        2.60367        2.54412
C          7.29152        3.89430       -0.13174
C          6.45311        4.28943        5.28990
C          4.80038        6.70331        4.33041
C          7.61437        6.34321        3.22402
C          3.72853        6.84399        0.36628
C          1.90556        5.46278       -1.59303
C          0.94297        5.92553        1.36198
C          2.38444        1.83700       -1.55741
C          0.07343        2.71071        0.32147
C          2.16104        0.63338        1.21540
P          2.05933        0.81549        5.49014
C          2.73017       -0.78957        6.08672
C          1.23393        1.46469        7.01357
Si         4.23922       -0.59264        7.27000
Si         2.87374       -2.06053        4.65137
Si        -0.54435        0.73700        7.15685
Si         1.30256        3.38171        7.28086
C          4.61822        1.22942        7.69598
C          5.86550       -1.36823        6.64695
C          3.73909       -1.50268        8.87720
C          1.23951       -2.18493        3.66491
C          3.12867       -3.77726        5.44991
C          4.26665       -1.67491        3.41315
C         -1.60556        1.26694        5.66303
C         -1.34209        1.30177        8.79769
C         -0.57305       -1.17662        7.26359
C         -0.26014        4.30689        6.70164
C          2.81129        4.23253        6.48515
C          1.49735        3.62448        9.16797
H          3.14353        4.99049        2.86743
H          0.93169        0.30657        4.84044
H          5.31749        5.16248        1.46464
H          4.01329        3.54601        0.15217
H          1.92646       -1.17502        6.71849
H          1.83048        1.04595        7.82843
H          5.41407        1.44904       -0.03516
H          4.81946        1.35674        1.61184
H          6.34529        0.60610        1.18560
H          8.65784        3.46484        2.91653
H          8.80851        2.01081        1.95484
H          7.81729        2.00258        3.39510
H          7.82155        4.81538        0.08850
H          6.49774        4.13381       -0.83345
H          7.98572        3.23238       -0.63880
H          7.29246        3.62731        5.11287
H          5.59927        3.67412        5.55679
H          6.69573        4.90718        6.14947
H          4.61906        7.44029        3.55343
H          5.16959        7.23858        5.20034
H          3.84507        6.26575        4.59897
H          8.38616        5.69412        2.82745
H          8.04073        6.88670        4.06011
H          7.37308        7.06920        2.45425
H          4.61619        6.62856       -0.22159
H          4.03936        7.03326        1.38824
H          3.30732        7.76819       -0.01927
H          1.09658        4.77395       -1.80416
H          2.73658        5.20672       -2.24215
H          1.57061        6.45593       -1.87381
H          0.02689        6.03288        0.79037
H          1.11796        6.86751        1.87361
H          0.76716        5.16850        2.12025
H          3.41543        1.51069       -1.65021
H          2.24946        2.68404       -2.21824
H          1.75673        1.03303       -1.92599
H         -0.15837        3.60006       -0.25288
H         -0.25117        2.88130        1.34153
H         -0.51977        1.89440       -0.08089
H          2.98282        0.03652        0.83261
H          1.25995        0.03128        1.14636
H          2.34528        0.82490        2.28068
H          4.15334        1.54180        8.62588
H          4.25619        1.88576        6.90958
H          5.68720        1.39344        7.79353
H          5.73956       -2.39479        6.32277
H          6.59934       -1.36626        7.44750
H          6.28531       -0.80620        5.82105
H          4.53752       -1.46618        9.61088
H          3.52306       -2.54823        8.68236
H          2.85580       -1.06620        9.33449
H          0.40043       -2.45268        4.30056
H          1.31687       -2.94879        2.89667
H          0.99400       -1.25077        3.17159
H          3.27319       -4.53324        4.68588
H          2.26471       -4.07070        6.03748
H          3.99139       -3.80428        6.10512
H          5.25048       -1.80232        3.84931
H          4.19317       -0.65094        3.05878
H          4.20131       -2.32853        2.54848
H         -1.01691        1.83151        4.94617
H         -2.43818        1.89349        5.96578
H         -2.01871        0.40733        5.14329
H         -1.46417        2.37689        8.85143
H         -0.75436        0.99269        9.65604
H         -2.32556        0.85539        8.90198
H         -0.25042       -1.64794        6.34117
H         -1.58857       -1.51001        7.45793
H          0.04723       -1.55605        8.07054
H         -1.16491        3.90522        7.14280
H         -0.36759        4.26148        5.62390
H         -0.19358        5.35426        6.98225
H          3.68182        4.23934        7.13406
H          2.57398        5.26401        6.24307
H          3.08394        3.72013        5.53744
H          1.50409        4.68083        9.41288
H          2.42304        3.19925        9.54196
H          0.68249        3.16825        9.71610
