69
CSD_code = CIRYUY | q = 0 | S = 0 | Stoichiometry = C26H39NNbPSi | MND = 9
Nb        -5.73985       -0.28008       -3.70795
P         -3.81436       -1.88060       -5.61623
Si        -8.03647        0.90608       -3.07401
N         -5.44025        0.91036       -5.00721
C         -5.70718       -1.60861       -1.56767
H         -6.43833       -2.36132       -1.29657
C         -5.75118       -0.25048       -1.19961
H         -6.49456        0.20985       -0.56129
C         -4.56869        0.36772       -1.65162
H         -4.24763        1.37101       -1.38981
C         -3.78730       -0.61783       -2.28196
H         -2.76043       -0.50357       -2.61270
C         -4.49207       -1.83870       -2.21732
H         -4.11698       -2.80139       -2.54708
C         -5.14257        1.76143       -6.00542
C         -3.84670        2.34240       -6.07686
C         -3.55271        3.25056       -7.07600
H         -2.57565        3.70705       -7.11567
C         -4.49325        3.58676       -8.03435
H         -4.25007        4.30199       -8.80592
C         -5.74242        2.99462       -7.99952
H         -6.46604        3.25272       -8.75816
C         -6.08772        2.08804       -7.01239
C         -7.46285        1.46307       -7.00437
H         -7.48586        0.70435       -6.20887
C         -7.77079        0.77303       -8.33661
H         -6.98136        0.07146       -8.59418
H         -7.86283        1.49676       -9.14261
H         -8.70823        0.22730       -8.26072
C         -8.52253        2.52724       -6.70541
H         -8.31524        3.01115       -5.75481
H         -9.50841        2.07182       -6.65444
H         -8.53269        3.28596       -7.48492
C         -2.83071        1.96057       -5.02644
H         -3.07466        0.93456       -4.71019
C         -2.97824        2.89009       -3.81739
H         -3.99590        2.83877       -3.42948
H         -2.77388        3.91842       -4.11011
H         -2.27991        2.61101       -3.02970
C         -1.39013        1.97556       -5.53734
H         -1.31144        1.44745       -6.48541
H         -0.73504        1.49202       -4.81466
H         -1.03303        2.99294       -5.67778
C         -7.56026        2.60295       -2.35294
C         -6.75046        3.46436       -3.09224
H         -6.43809        3.16985       -4.08777
C         -6.34447        4.68361       -2.58058
H         -5.71947        5.33626       -3.17405
C         -6.73396        5.06657       -1.30698
H         -6.41236        6.01538       -0.90168
C         -7.53775        4.22556       -0.55708
H         -7.84737        4.51777        0.43682
C         -7.94566        3.01060       -1.08010
H         -8.57885        2.36362       -0.48859
C         -2.01445       -2.08278       -5.99261
H         -1.87239       -2.66758       -6.89975
H         -1.52119       -2.58262       -5.16063
H         -1.56877       -1.09894       -6.12137
C         -4.39901       -1.28527       -7.25649
H         -4.06447       -1.94914       -8.05334
H         -4.02007       -0.27935       -7.42694
H         -5.48757       -1.23852       -7.22586
C         -4.34308       -3.64617       -5.75196
H         -4.02391       -4.07212       -6.70238
H         -5.42952       -3.68955       -5.67793
H         -3.91026       -4.22583       -4.93789
H         -8.80783        0.23901       -1.98698
H         -9.12061        1.18891       -4.04993
H         -6.62596       -1.38129       -4.60990
