76
CSD_code = COJHER | q = -1 | S = 0 | Stoichiometry = C28H39MnOPS3Si3(1-) | MND = 5
Mn        10.70155       11.99539        4.10984
S          8.51008       11.27319        3.61800
S         10.31790       14.36001        3.89948
S         12.31351        9.98123        2.96911
P         10.70646       12.07058        1.92424
Si         6.21999        9.06245        2.86645
Si         9.30233       17.31700        3.10733
Si        15.28018        9.08944        1.88566
O         11.45055       11.64048        5.42781
C          8.57468       10.46140        2.07319
C          7.62153        9.51699        1.68341
C          7.77645        8.92943        0.43220
H          7.05648        8.18787        0.11556
C          8.82365        9.25176       -0.41575
H          8.91620        8.76086       -1.37533
C          9.75758       10.20025       -0.03050
H         10.59212       10.45800       -0.66997
C          9.62316       10.80639        1.20524
C          9.89699       14.66056        2.24053
C          9.42577       15.92037        1.83989
C          9.04975       16.08291        0.51379
H          8.68197       17.04749        0.19330
C          9.11763       15.05036       -0.40981
H          8.79558       15.20959       -1.43025
C          9.59943       13.81442       -0.01646
H          9.65552       12.98886       -0.71433
C         10.00409       13.62463        1.29555
C         13.02033       10.81741        1.63113
C         14.27144       10.47941        1.09905
C         14.73326       11.22597        0.02074
H         15.69841       10.98273       -0.40181
C         14.01057       12.27647       -0.52246
H         14.41401       12.84149       -1.35220
C         12.77061       12.60625        0.00232
H         12.19592       13.43055       -0.39839
C         12.27286       11.86146        1.05549
C          6.90036        8.27054        4.46381
H          6.10502        8.02275        5.16131
H          7.57566        8.96158        4.95530
H          7.45495        7.36101        4.25052
C          5.11614       10.57035        3.25285
H          4.32960       10.31938        3.95902
H          4.64590       10.95882        2.35393
H          5.71651       11.36400        3.68236
C          5.10088        7.75320        2.02427
H          5.64295        6.83881        1.80657
H          4.68201        8.12220        1.09382
H          4.27136        7.49340        2.67397
C          8.03294       16.91846        4.47483
H          8.30663       15.99541        4.97215
H          7.03569       16.78986        4.06340
H          7.98815       17.70567        5.22232
C          8.67698       18.89780        2.21970
H          7.68769       18.75803        1.79663
H          9.34282       19.20111        1.41838
H          8.61646       19.72288        2.92204
C         11.01118       17.75572        3.83803
H         10.93898       18.55392        4.57143
H         11.70353       18.07511        3.06405
H         11.43634       16.88641        4.32543
C         15.71999        9.51205        3.69573
H         14.81017        9.70231        4.25328
H         16.34136       10.40122        3.75821
H         16.24944        8.69795        4.18287
C         14.38360        7.40857        1.77480
H         14.25236        7.09392        0.74304
H         13.40065        7.48915        2.22537
H         14.93203        6.62753        2.29462
C         16.93744        8.90748        0.94000
H         17.53388        8.11180        1.37463
H         17.52770        9.81711        0.98157
H         16.77793        8.66116       -0.10467
C         12.21801       11.17132        6.44898
H         11.59344       10.93835        7.32450
H         12.97006       11.92074        6.73845
H         12.73567       10.25413        6.12462
