121
CSD_code = COJSUS | q = 0 | S = 0 | Stoichiometry = C50H64FN3PScSi | MND = 5
Sc         2.95074        4.40249       14.15168
P          5.49333        3.61087       15.13751
Si         6.27750        6.03852       13.15064
F         -0.88261        2.99544       13.04198
N          2.14519        3.28479       15.83252
N          1.76779        6.06398       14.80279
N          1.28365        3.58539       12.82832
C          0.07225        2.41716       16.86585
H          0.66299        1.52626       17.06333
H         -0.81635        2.14009       16.30078
H         -0.25816        2.83597       17.81522
C          0.85758        3.45354       16.08897
C          0.11389        4.58190       15.72468
H         -0.93866        4.52533       15.96555
C          0.53460        5.81187       15.21267
C         -0.53058        6.88752       15.18259
H         -0.09495        7.88275       15.13475
H         -1.17141        6.81896       16.05873
H         -1.15574        6.74108       14.30193
C          2.84152        2.26137       16.52289
C          3.17027        2.44589       17.87769
C          3.87332        1.45390       18.54489
H          4.13797        1.59486       19.58180
C          4.23624        0.28498       17.90722
H          4.76858       -0.48602       18.44471
C          3.92480        0.10989       16.57179
H          4.22094       -0.80347       16.08153
C          3.24291        1.08562       15.86059
C          2.92533        0.89467       14.39384
H          3.00485        1.89043       13.91313
C          1.49170        0.38620       14.20708
H          1.34356       -0.53541       14.76755
H          1.30170        0.18455       13.15408
H          0.77057        1.12305       14.54850
C          3.89908       -0.04147       13.67770
H          3.75926        0.04196       12.60168
H          3.72329       -1.07799       13.95701
H          4.92938        0.22007       13.90740
C          2.82640        3.72382       18.60964
H          2.19688        4.34635       17.96559
C          2.05820        3.45189       19.90510
H          1.20131        2.80870       19.71934
H          1.70183        4.38815       20.33022
H          2.69333        2.96708       20.64225
C          4.11159        4.50067       18.90395
H          4.78876        3.91529       19.52189
H          3.88113        5.42613       19.42766
H          4.62710        4.73796       17.97459
C          2.12950        7.40493       14.50797
C          1.85866        7.98592       13.25859
C          2.21650        9.30862       13.03819
H          2.01585        9.76169       12.07923
C          2.81332       10.06214       14.02981
H          3.06701       11.09578       13.84788
C          3.09257        9.48310       15.25283
H          3.56332       10.07628       16.02097
C          2.77116        8.15846       15.50686
C          3.08637        7.53683       16.84965
H          3.10393        6.44491       16.72070
C          1.98684        7.87214       17.86134
H          1.88023        8.95056       17.96380
H          2.23190        7.45416       18.83553
H          1.03400        7.45924       17.53994
C          4.45189        7.98046       17.37881
H          5.20296        7.92146       16.59417
H          4.76350        7.33847       18.19930
H          4.41809        9.00276       17.74821
C          1.23018        7.18862       12.13844
H          0.91712        6.21444       12.53388
C          2.27966        6.94486       11.05010
H          2.60419        7.88672       10.61323
H          1.86862        6.31960       10.25969
H          3.14778        6.44283       11.48191
C         -0.00154        7.88190       11.55202
H         -0.71080        8.14053       12.33486
H         -0.49577        7.22109       10.84253
H          0.27424        8.79353       11.02795
C          5.06068        5.18605       14.32285
H          4.82311        5.85885       15.16622
C          6.02688        5.44172       11.34493
H          6.70758        4.63263       11.10123
H          6.21649        6.25089       10.64638
H          5.01409        5.08563       11.17418
C          8.16267        5.89426       13.48233
H          8.49575        6.55146       14.27987
H          8.72565        6.15392       12.59017
H          8.43624        4.88046       13.75749
C          5.83990        7.90243       13.20159
H          4.78188        8.06405       13.02277
H          6.39146        8.44883       12.44420
H          6.07722        8.35154       14.16088
C          6.52463        2.75851       13.89391
C          5.92637        2.48413       12.66602
H          4.90934        2.82674       12.49010
C          6.61138        1.79593       11.68360
H          6.13605        1.59578       10.73377
C          7.90511        1.35710       11.91690
H          8.44340        0.81769       11.15143
C          8.50207        1.61030       13.13991
H          9.50976        1.26874       13.32959
C          7.81793        2.30076       14.12513
H          8.29872        2.48934       15.07426
C          6.74324        3.92565       16.44874
C          7.05615        2.85392       17.28431
H          6.62752        1.88240       17.07243
C          7.89813        3.03150       18.36426
H          8.14488        2.19390       19.00140
C          8.41850        4.28761       18.63748
H          9.07315        4.42911       19.48528
C          8.08736        5.36200       17.82932
H          8.48323        6.34383       18.04825
C          7.24659        5.18486       16.74469
H          6.98114        6.02424       16.11899
C          2.44108        3.75508       12.11420
C          2.40089        3.39484       10.75365
H          3.29719        3.50542       10.15602
C          1.25112        2.90523       10.15608
H          1.24229        2.63616        9.10827
C          0.09988        2.76063       10.91424
H         -0.82732        2.38761       10.51010
C          0.20287        3.12086       12.24299
