70
CSD_code = COMYAF | q = 0 | S = 0 | Stoichiometry = C32H35ClHfSi | MND = 12
Hf         4.91251        8.10002        0.89879
Cl         6.50303        7.59273       -0.76156
C          3.19369        9.06243       -0.03024
H          2.30981        8.41793       -0.04115
H          2.90761        9.94701        0.54914
Si         3.55992        9.57510       -1.81769
C          3.71869        7.98726       -2.87177
H          4.11418        8.20533       -3.85831
H          2.75044        7.51482       -3.00547
H          4.38074        7.26314       -2.40508
C          5.15748       10.62957       -1.84388
H          5.49075       10.80612       -2.86163
H          5.97006       10.13748       -1.31508
H          4.99454       11.60028       -1.38580
C          2.17396       10.64514       -2.59277
H          2.40710       10.91551       -3.61720
H          2.02877       11.56535       -2.03652
H          1.22722       10.11555       -2.60106
C          4.37987        6.26844        2.22223
C          5.19474        5.51675        1.28579
C          6.48870        4.98511        1.39361
H          7.05388        5.08805        2.31045
C          7.01507        4.28269        0.33110
H          8.00997        3.86869        0.40795
C          6.28710        4.08656       -0.84411
H          6.73745        3.54057       -1.65883
C          4.99837        4.56152       -0.96432
H          4.42622        4.37921       -1.86232
C          4.43317        5.26706        0.09602
C          3.10292        5.76416        0.31570
C          1.94712        5.69263       -0.45849
H          1.98225        5.26103       -1.44769
C          0.75738        6.15582        0.06465
H         -0.14758        6.09689       -0.52078
C          0.70206        6.68471        1.35713
H         -0.24784        7.02026        1.74660
C          1.82888        6.77702        2.14490
H          1.75665        7.17625        3.14705
C          3.05617        6.32377        1.63823
C          5.88920        8.47507        3.09584
C          6.95177        8.81815        2.21507
C          6.61288        9.99973        1.52349
H          7.28094       10.55758        0.88423
C          5.35069       10.44852        1.99190
C          4.60208       11.61467        1.73307
H          4.96919       12.35892        1.04095
C          3.41493       11.78032        2.39338
C          2.44156       12.91880        2.28873
H          2.30915       13.26449        1.26335
H          2.79566       13.76437        2.88572
C          1.15277       12.33584        2.88582
H          0.52387       13.09766        3.34402
H          0.57808       11.84700        2.09704
C          1.62828       11.28178        3.89573
H          1.78406       11.73296        4.88020
H          0.91767       10.46292        4.01071
C          2.94356       10.83087        3.32880
C          3.65381        9.70203        3.63522
H          3.30592        9.02006        4.39871
C          4.88154        9.48504        2.97037
C          4.65979        6.36136        3.70749
H          4.87283        5.36506        4.11089
H          3.75896        6.72330        4.20734
C          5.84306        7.30253        4.03754
H          5.74334        7.64978        5.07130
H          6.78366        6.75203        3.96978
C          8.27978        8.12100        2.11427
H          8.96179        8.71511        1.51008
H          8.19047        7.13899        1.64620
H          8.72073        7.99269        3.10347
