40
CSD_code = COPKEY | q = 0 | S = 0 | Stoichiometry = C13H20BCrNO3Si | MND = 9
Cr         3.45527        8.76911        2.40873
Si         2.54059        5.39191        3.37559
O          1.28358        9.08259        0.40429
O          3.37393       11.72908        2.15844
O          1.15859        9.55072        4.12327
N          3.76782        6.58672        2.85974
B          4.16344        6.73505        1.47946
C          2.14890        8.92448        1.15533
C          3.46910       10.57894        2.24134
C          2.06372        9.19435        3.49160
C          4.35394        7.37980        3.82022
C          5.35748        8.29023        3.54124
C          5.73779        8.54552        2.20142
C          5.18380        7.81017        1.16581
C          1.15024        5.43609        2.08140
C          1.82288        5.94783        5.05198
C          3.45601        3.69269        3.53857
C          3.83784        3.13661        2.16468
C          2.52558        2.69235        4.22736
C          4.73221        3.84038        4.37524
H          3.70708        6.01179        0.68026
H          4.11395        7.15654        4.85386
H          5.85484        8.80044        4.35734
H          6.52329        9.27410        2.02146
H          5.54879        8.00380        0.16315
H          0.28807        4.86989        2.41831
H          0.82918        6.46064        1.90922
H          1.45776        5.02634        1.12571
H          2.49814        5.79071        5.88813
H          1.55088        6.99927        5.03173
H          0.91902        5.38704        5.26584
H          2.95336        2.97600        1.55376
H          4.34963        2.18132        2.27597
H          4.50198        3.81771        1.63794
H          3.01073        1.72112        4.31283
H          2.26130        3.02825        5.22646
H          1.60926        2.56485        3.65696
H          5.22885        2.87611        4.47587
H          4.50706        4.20588        5.37516
H          5.43072        4.52929        3.90310
