69
CSD_code = CORCUI | q = 0 | S = 0 | Stoichiometry = C28H33BrCrO5Si | MND = 9
Cr        11.48701        5.23324        3.86292
C         10.41245        4.08132        4.77090
O          9.71756        3.31720        5.29163
C         11.81845        3.69901        2.94892
O         11.96588        2.68636        2.40724
C         10.05250        5.32879        2.74392
O          9.13978        5.33844        2.03779
C         13.09368        5.66167        5.43335
O         13.69608        4.88023        6.40052
C         13.03657        3.65923        6.70008
H         13.66245        3.15878        7.43673
H         12.94036        3.03474        5.80489
H         12.03924        3.82583        7.11676
C         13.64486        5.69710        4.14009
C         14.88286        4.88011        3.87216
H         14.96539        4.64030        2.81223
H         14.81724        3.93910        4.42052
C         16.13047        5.63035        4.34794
H         17.02250        5.04296        4.14540
H         16.06693        5.80721        5.41912
H         16.22678        6.59091        3.84490
C         13.17162        6.66439        3.20959
C         13.81087        6.84318        1.85658
H         14.87465        6.60879        1.89787
H         13.70814        7.88473        1.55207
C         13.13007        5.96789        0.80070
H         13.58266        6.13886       -0.17337
H         12.07088        6.20840        0.74046
H         13.22233        4.91273        1.04806
C         12.04340        7.43254        3.52288
O         11.66538        8.41196        2.65647
Si        12.08427       10.01353        2.71894
C         11.31857       10.91263        4.21779
H         10.23471       10.94604        4.17322
H         11.67457       11.93628        4.27523
H         11.58703       10.42483        5.15177
C         13.97754       10.20651        2.92048
H         14.52226       10.05793        1.99274
H         14.36443        9.49134        3.64307
H         14.22957       11.19782        3.28270
C         11.42510       10.66345        1.03927
C         12.07541        9.93114       -0.13805
H         13.15354       10.07698       -0.14273
H         11.68143       10.31132       -1.07979
H         11.86746        8.86526       -0.08957
C         11.74979       12.15353        0.93202
H         12.82204       12.32264        0.99302
H         11.27120       12.71131        1.73274
H         11.39607       12.55211       -0.01778
C          9.90823       10.48369        0.93780
H          9.39920       10.99635        1.75057
H          9.64339        9.42984        0.96971
H          9.54363       10.89475       -0.00293
C         11.36380        7.28798        4.77660
C         10.10896        7.92632        5.09417
C          9.24003        8.42998        4.11185
H          9.49050        8.31819        3.07176
C          8.04850        9.02397        4.44554
H          7.38639        9.39128        3.67695
C          7.69126        9.14165        5.78795
Br         6.06139       10.01702        6.24501
C          8.48215        8.61415        6.77708
H          8.17765        8.66480        7.81155
C          9.68413        7.97453        6.44529
C         10.46183        7.33717        7.45546
H         10.15040        7.43856        8.48406
C         11.53189        6.57901        7.12942
H         12.10157        6.06643        7.89033
C         11.98496        6.48505        5.77782
