123
CSD_code = CORFAS | q = 0 | S = 0 | Stoichiometry = C42H76CrN2Si2 | MND = 2
C          5.22277       -0.86545        1.93972
C          6.34612       -1.35915        2.67243
C          6.67207       -2.69554        2.59907
H          7.52605       -3.06215        3.14763
C          5.92882       -3.59567        1.83958
H          6.22285       -4.63351        1.79160
C          4.78671       -3.16186        1.21509
H          4.15663       -3.88256        0.71354
C          4.37779       -1.82209        1.26707
C          2.91538       -1.53677        0.98338
H          2.74915       -0.47122        1.15720
C          2.02313       -2.32442        1.95117
H          0.97802       -2.06106        1.79723
H          2.28809       -2.10526        2.98240
H          2.12994       -3.39481        1.79372
C          2.53483       -1.85846       -0.46046
H          3.21652       -1.35197       -1.14147
H          1.51466       -1.53771       -0.66019
H          2.58802       -2.92765       -0.64749
C          7.19225       -0.45753        3.53901
H          6.80663        0.55789        3.42500
C          8.66158       -0.48827        3.10475
H          9.12731       -1.42594        3.39796
H          9.20940        0.32322        3.57940
H          8.75111       -0.38994        2.02767
C          7.09589       -0.85445        5.01534
H          6.06274       -0.87764        5.34697
H          7.64424       -0.14247        5.62916
H          7.52315       -1.84183        5.17425
C          4.11542        1.26379        4.62093
H          5.13633        1.19380        5.00462
C          3.45732       -0.09560        4.84047
H          3.51917       -0.39026        5.88885
H          3.94689       -0.85853        4.23852
H          2.40720       -0.06466        4.56457
C          3.40677        2.33311        5.44904
H          2.38092        2.47249        5.11913
H          3.91988        3.28781        5.37014
H          3.38628        2.04644        6.50065
C          5.37557        3.28458        2.51660
H          5.80551        3.19083        1.51637
C          6.53450        3.37437        3.50931
H          7.14064        4.25757        3.30551
H          7.18504        2.50795        3.44473
H          6.16679        3.45223        4.52965
C          4.61749        4.61023        2.54785
H          4.08554        4.73930        3.48762
H          3.90261        4.67587        1.73369
H          5.31379        5.44305        2.44340
C          2.50849        2.26451        2.03979
H          2.33219        3.28741        2.38264
C          1.28005        1.47177        2.48666
H          0.39010        1.85040        1.98191
H          1.12009        1.57784        3.55648
H          1.36566        0.41418        2.26279
C          2.59610        2.31400        0.51563
H          2.96671        1.37147        0.10578
H          3.29038        3.08788        0.20284
H          1.62423        2.52758        0.07136
N          4.90809        0.47183        1.77429
Si         4.23772        1.72548        2.75239
Cr         5.33025        0.00001       -0.00000
C          5.43772        0.86545       -1.93973
C          4.31437        1.35915       -2.67244
C          3.98841        2.69553       -2.59908
H          3.13443        3.06214       -3.14764
C          4.73166        3.59566       -1.83959
H          4.43763        4.63350       -1.79161
C          5.87377        3.16187       -1.21510
H          6.50385        3.88256       -0.71354
C          6.28270        1.82210       -1.26707
C          7.74511        1.53678       -0.98339
H          7.91134        0.47123       -1.15722
C          8.63736        2.32444       -1.95119
H          9.68247        2.06108       -1.79725
H          8.37239        2.10528       -2.98241
H          8.53054        3.39482       -1.79373
C          8.12566        1.85847        0.46045
H          7.44397        1.35197        1.14146
H          9.14583        1.53772        0.66018
H          8.07247        2.92766        0.64748
C          3.46824        0.45751       -3.53902
H          3.85387       -0.55790       -3.42500
C          1.99892        0.48826       -3.10476
H          1.53318        1.42592       -3.39799
H          1.45110       -0.32324       -3.57939
H          1.90938        0.38995       -2.02768
C          3.56461        0.85443       -5.01534
H          4.59775        0.87761       -5.34698
H          3.01626        0.14245       -5.62916
H          3.13735        1.84181       -5.17427
C          6.54508       -1.26380       -4.62092
H          5.52417       -1.19382       -5.00461
C          7.20318        0.09559       -4.84047
H          7.14132        0.39025       -5.88886
H          6.71360        0.85852       -4.23852
H          8.25329        0.06466       -4.56458
C          7.25374       -2.33312       -5.44903
H          8.27959       -2.47249       -5.11912
H          6.74064       -3.28782       -5.37012
H          7.27423       -2.04646       -6.50065
C          5.28495       -3.28458       -2.51658
H          4.85501       -3.19083       -1.51636
C          4.12602       -3.37438       -3.50930
H          3.51988       -4.25758       -3.30549
H          3.47548       -2.50797       -3.44473
H          4.49374       -3.45225       -4.52964
C          6.04303       -4.61023       -2.54782
H          6.57499       -4.73931       -3.48759
H          6.75791       -4.67586       -1.73366
H          5.34674       -5.44306       -2.44337
C          8.15202       -2.26449       -2.03978
H          8.32832       -3.28739       -2.38262
C          9.38045       -1.47175       -2.48666
H         10.27040       -1.85038       -1.98190
H          9.54042       -1.57783       -3.55648
H          9.29484       -0.41416       -2.26280
C          8.06442       -2.31397       -0.51562
H          7.69379       -1.37144       -0.10577
H          7.37013       -3.08786       -0.20283
H          9.03628       -2.52755       -0.07135
N          5.75241       -0.47183       -1.77430
Si         6.42279       -1.72548       -2.75238
