78
CSD_code = COTXAM | q = 0 | S = 0 | Stoichiometry = C23H49BNOScSi2 | MND = 9
Sc        -0.23512       -1.23486       -5.01660
Si         2.05433       -1.90264       -2.14606
Si         0.35660       -3.55653       -7.73453
B         -1.89154        0.33458       -6.20959
N         -3.13076       -0.03394       -6.83308
O         -1.84290       -1.98344       -3.28403
C         -0.53757        0.32086       -6.94112
H         -0.43888        0.08457       -7.99855
C          0.59500        0.88778       -6.35733
C          0.56381        1.39651       -5.04569
H          1.43909        1.90987       -4.66309
C         -0.61537        1.39777       -4.27615
C         -1.79832        0.84539       -4.76508
H         -2.67507        1.01767       -4.14047
C          1.85287        1.10182       -7.16669
H          1.90073        2.14043       -7.49837
H          1.86792        0.46529       -8.04897
H          2.74582        0.90206       -6.57552
C         -0.62309        2.19114       -2.98892
H         -1.29068        1.75573       -2.24588
H         -0.97879        3.20176       -3.20017
H          0.37501        2.27454       -2.56363
C         -4.41321        0.15744       -6.19815
H         -5.17948        0.33361       -6.96113
H         -4.37549        1.04675       -5.56301
C         -4.82003       -1.04989       -5.34508
H         -4.05927       -1.22143       -4.58798
H         -4.90082       -1.94200       -5.96322
H         -5.77825       -0.87473       -4.86015
C         -3.19667       -0.58716       -8.16736
H         -4.06035       -1.25933       -8.24189
H         -2.29864       -1.18157       -8.34857
C         -3.31084        0.49597       -9.24526
H         -2.45971        1.16824       -9.18015
H         -4.21775        1.08107       -9.10806
H         -3.33379        0.04620      -10.23515
C         -0.70481       -3.05884       -6.25267
H         -0.67823       -3.90368       -5.54588
H         -1.75441       -2.96936       -6.57966
C         -0.28056       -2.87487       -9.41112
H         -0.20841       -1.79331       -9.45943
H         -1.31674       -3.14668       -9.58734
H          0.30345       -3.27438      -10.23487
C          2.15456       -2.92221       -7.51367
H          2.70586       -3.54560       -6.81639
H          2.16214       -1.90522       -7.12327
H          2.70145       -2.92533       -8.45176
C          0.47384       -5.46121       -7.96314
H         -0.49363       -5.89500       -8.19732
H          0.83452       -5.93833       -7.05685
H          1.15481       -5.72829       -8.76538
C          1.72698       -1.67700       -3.98460
H          2.07672       -2.60531       -4.46909
H          2.42708       -0.89538       -4.33256
C          1.54022       -0.33272       -1.16471
H          0.70834        0.17410       -1.64608
H          2.36221        0.37435       -1.11219
H          1.24841       -0.56437       -0.14444
C          3.88550       -2.23744       -1.67279
H          4.53070       -1.43113       -2.00930
H          4.24658       -3.15375       -2.13038
H          4.01744       -2.33413       -0.59884
C          1.06845       -3.40197       -1.46748
H          1.46278       -4.33028       -1.86753
H          0.02288       -3.34715       -1.74858
H          1.12200       -3.46410       -0.38492
C         -2.13074       -1.30781       -2.04594
H         -2.79589       -0.46237       -2.26192
H         -1.19131       -0.93850       -1.62893
C         -2.82608       -2.31829       -1.13846
H         -2.09111       -2.89890       -0.58078
H         -3.50411       -1.83930       -0.43638
C         -3.54077       -3.20337       -2.15511
H         -4.46028       -2.72626       -2.49607
H         -3.77634       -4.19249       -1.77105
C         -2.51525       -3.25428       -3.28263
H         -1.77571       -4.04391       -3.09981
H         -2.96314       -3.40949       -4.26603
