40
CSD_code = COXFOK | q = 0 | S = 0 | Stoichiometry = C15H22OSiZr | MND = 12
Zr         2.77010        0.92822        2.72315
Si         3.19315        0.62398       -0.44371
O          3.62740        2.42364        1.98316
C          4.61688        2.60810        1.02681
C          4.86637        1.36766        0.16660
C          2.53520       -0.43773        0.95977
C          1.98478        2.06013       -0.84085
C          3.57064       -0.25435       -2.11299
C          3.80044       -1.18385        3.79891
C          3.28893       -0.41001        4.85440
C          4.01626        0.80004        4.90711
C          5.00624        0.75322        3.90119
C          4.86869       -0.46771        3.21225
C          0.91811        1.32500        4.46929
C          0.37589        0.57324        3.40836
C          0.34518        1.40758        2.26178
C          0.87657        2.66118        2.62436
C          1.25845        2.60189        3.97819
H          4.31665        3.44033        0.36546
H          5.55595        2.91937        1.52717
H          5.52278        1.64851       -0.65711
H          5.40079        0.62550        0.76395
H          1.50103       -0.75769        0.77486
H          3.14131       -1.34855        1.05597
H          1.87199        2.69917        0.03074
H          2.34721        2.66993       -1.66311
H          1.00325        1.69138       -1.12317
H          4.30791       -1.04011       -1.98786
H          2.67170       -0.71258       -2.50909
H          3.94651        0.43168       -2.86468
H          3.53265       -2.21069        3.58156
H          2.56689       -0.75315        5.58364
H          3.93378        1.56070        5.67655
H          5.79962        1.47789        3.76093
H          5.55087       -0.86225        2.46951
H          0.93727        1.03263        5.51119
H         -0.08844       -0.40374        3.49230
H         -0.14340        1.17638        1.32302
H          0.89994        3.54890        2.00583
H          1.61236        3.43694        4.57194
