81
CSD_code = CUJSAD | q = -1 | S = 0 | Stoichiometry = C20H54MnSi6(1-) | MND = 2
Mn         4.54732       10.82244        5.32179
Si         6.11034       10.55066        8.17114
Si         7.25732       12.54217        5.95445
Si         7.46151        9.38500        5.52508
C          6.59840       10.82837        6.37337
C          7.45518        9.79465        9.32005
H          7.85016        8.87293        8.90877
H          7.07334        9.57776       10.31398
H          8.28690       10.48331        9.42823
C          4.59461        9.36220        8.16210
H          4.06670        9.48217        7.20484
H          3.88655        9.56661        8.96011
H          4.89265        8.32265        8.24198
C          5.53358       12.09373        9.16251
H          6.34636       12.79913        9.29427
H          5.17793       11.81547       10.15130
H          4.72835       12.61250        8.65743
C          8.59601       13.25693        7.13631
H          8.25749       13.24475        8.16591
H          8.86296       14.28023        6.88672
H          9.49937       12.65768        7.08565
C          5.74833       13.73845        5.96012
H          4.84843       13.15904        5.71001
H          5.83729       14.54383        5.23666
H          5.58781       14.18502        6.93508
C          8.06415       12.76107        4.22312
H          8.97179       12.17415        4.13811
H          8.32746       13.79969        4.03989
H          7.39554       12.44674        3.43136
C          9.38472        9.39883        5.55021
H          9.74738        9.30472        6.56868
H          9.77609       10.32801        5.15240
H          9.81013        8.58427        4.97039
C          6.88764        9.39009        3.68675
H          6.83075        8.39586        3.25291
H          7.54014        9.98816        3.06042
H          5.88375        9.83611        3.63845
C          7.04539        7.62491        6.17702
H          5.97664        7.45189        6.19711
H          7.41939        7.48370        7.18489
H          7.49246        6.85686        5.55115
Si         2.98633       11.09242        2.46829
Si         1.83934        9.10088        4.68505
Si         1.63529       12.25798        5.11442
C          2.49836       10.81462        4.26608
C          1.64150       11.84844        1.31945
H          1.24656       12.77016        1.73078
H          2.02334       12.06533        0.32553
H          0.80978       11.15978        1.21132
C          4.50211       12.28086        2.47732
H          5.03022       12.16114        3.43449
H          5.21014       12.07646        1.67929
H          4.20403       13.32039        2.39745
C          3.56311        9.54930        1.47700
H          2.75029        8.84393        1.34525
H          3.91873        9.82757        0.48820
H          4.36834        9.03052        1.98207
C          0.50064        8.38622        3.50315
H          0.83913        8.39848        2.47354
H          0.23367        7.36292        3.75268
H         -0.40269        8.98551        3.55390
C          3.34825        7.90445        4.67929
H          4.24831        8.48356        4.92948
H          3.25920        7.09904        5.40270
H          3.50874        7.45792        3.70431
C          1.03252        8.88194        6.41637
H          0.12493        9.46892        6.50139
H          0.76914        7.84333        6.59955
H          1.70114        9.19619        7.20816
C         -0.28797       12.24422        5.08925
H         -0.65070       12.33833        4.07081
H         -0.67936       11.31506        5.48707
H         -0.71342       13.05875        5.66908
C          2.20919       12.25282        6.95267
H          2.26617       13.24702        7.38658
H          1.55672       11.65472        7.57903
H          3.21307       11.80667        7.00036
C          2.05130       14.01811        4.46247
H          3.12006       14.19111        4.44242
H          1.67734       14.15938        3.45460
H          1.60427       14.78619        5.08835
