98
CSD_code = CUVBAY | q = 0 | S = 0 | Stoichiometry = C40H54N2RuSi | MND = 9
Ru         2.18727        6.52097       10.93418
H          2.49332        7.97586       10.64489
H          2.16450        5.78727       12.26817
Si         0.59917        7.76644       12.29946
N          4.91741        5.78309       12.12968
N          4.98515        7.77285       11.31813
C          0.72525        5.05357       10.19226
H         -0.06044        4.52757       10.72001
C          2.03385        4.54293        9.94817
H          2.39081        3.57459       10.27445
C          2.66317        5.39833        9.01494
H          3.60958        5.22113        8.52147
C          1.76829        6.44724        8.70966
H          1.90487        7.19080        7.93459
C          0.55990        6.22579        9.41847
H         -0.36422        6.76789        9.26214
C         -0.05493        9.44975       11.59540
C          0.48672       10.07135       10.47559
H          1.31871        9.60629        9.96546
C          0.00151       11.27889       10.00451
H          0.45060       11.73751        9.13362
C         -1.05449       11.89977       10.64790
H         -1.43877       12.84268       10.28432
C         -1.61316       11.30002       11.76386
H         -2.43895       11.77624       12.27506
C         -1.11588       10.09499       12.22598
H         -1.56155        9.64543       13.10074
C          0.92073        8.18857       14.17589
H          1.97264        8.19025       14.43747
H          0.51554        9.16437       14.41932
H          0.42809        7.45917       14.80878
C         -1.06215        6.76870       12.47076
H         -1.58645        6.66351       11.52551
H         -0.87952        5.77278       12.86383
H         -1.73580        7.26825       13.15988
C          4.14033        6.71946       11.51167
C          6.19036        6.25661       12.33324
H          6.93966        5.67540       12.82989
C          6.23416        7.50083       11.81876
H          7.03582        8.20842       11.76082
C          4.57578        4.44952       12.49366
C          4.93905        3.40400       11.63622
C          4.64959        2.10377       12.02972
H          4.91628        1.27779       11.38908
C          4.03180        1.85124       13.23879
H          3.81140        0.83384       13.52717
C          3.71576        2.89328       14.08916
H          3.26107        2.67511       15.04176
C          3.98508        4.20903       13.73800
C          5.69512        3.65690       10.34933
H          5.55241        4.70311       10.05936
C          5.22764        2.77494        9.18912
H          4.14686        2.79827        9.08213
H          5.67177        3.12722        8.25961
H          5.53632        1.74223        9.33120
C          7.19209        3.42052       10.58144
H          7.74444        3.59000        9.65947
H          7.58520        4.08898       11.34226
H          7.36411        2.39588       10.90417
C          3.72017        5.34244       14.70135
H          3.62609        6.27075       14.12705
C          2.42020        5.15804       15.48109
H          2.20984        6.05813       16.05225
H          1.59731        4.99085       14.79181
H          2.48226        4.32530       16.17724
C          4.90481        5.46952       15.66539
H          4.72702        6.28097       16.36688
H          5.03676        4.54747       16.22822
H          5.82635        5.67828       15.12680
C          4.74474        8.98829       10.61254
C          5.11760        9.05786        9.26674
C          4.96193       10.26838        8.60418
H          5.24367       10.35165        7.56614
C          4.45241       11.37084        9.26058
H          4.33406       12.30450        8.73050
C          4.09617       11.28626       10.59362
H          3.70056       12.15790       11.08724
C          4.23954       10.09910       11.29705
C          5.70661        7.86428        8.54778
H          5.47595        6.96297        9.12524
C          5.11906        7.68198        7.14746
H          4.03423        7.73008        7.17989
H          5.47767        8.44803        6.46478
H          5.41165        6.71383        6.74448
C          7.22944        8.00487        8.45884
H          7.67613        8.05183        9.44887
H          7.65524        7.15403        7.93072
H          7.49284        8.91269        7.92053
C          3.87740        9.98904       12.75862
H          3.46833        8.98223       12.91385
C          2.81516       10.99944       13.18554
H          2.47206       10.75909       14.18770
H          3.21643       12.01036       13.20412
H          1.96102       10.96049       12.51653
C          5.12524       10.17222       13.63163
H          4.84429       10.14784       14.68181
H          5.85531        9.38669       13.45824
H          5.59278       11.13284       13.42275
