100
CSD_code = CUYQAP | q = 0 | S = 0 | Stoichiometry = C36H55N4O2Si2Y | MND = 6
Y         16.39957        5.45185       15.20536
N         14.66302        7.49679       15.14082
N         15.19359        8.70054       15.39978
N         17.05589        7.43148       16.99368
N         17.32171        8.59576       16.37812
O         17.49236        6.96439       14.17033
O         14.65323        5.20285       17.45981
Si        19.61343        4.05208       15.73240
Si        15.58271        2.93737       12.60638
C         16.12124        8.36840       12.78511
C         15.28735        9.46820       12.61113
H         15.34739       10.32699       13.26461
C         14.34499        9.48472       11.59737
H         13.70118       10.34565       11.48296
C         14.22134        8.40747       10.73798
H         13.48069        8.42370        9.95165
C         15.05478        7.31418       10.89557
H         14.97096        6.46820       10.22933
C         15.99511        7.29788       11.90909
H         16.64942        6.44814       12.04072
C         18.43694        9.04356       13.51928
C         18.40257       10.25933       12.84832
H         17.46303       10.68064       12.52450
C         19.57749       10.93568       12.56588
H         19.53730       11.87833       12.03877
C         20.79894       10.40963       12.95113
H         21.71236       10.94244       12.73007
C         20.84037        9.19302       13.61089
H         21.78810        8.76930       13.90922
C         19.66752        8.51569       13.88955
H         19.68051        7.55973       14.39049
C         17.17293        8.24707       13.89636
C         16.59040        8.98542       15.20126
H         16.71088       10.06610       15.08158
C         14.54355       10.98490       16.19788
H         14.92999       11.56706       15.36043
H         15.27787       11.01212       17.00335
H         13.62950       11.45829       16.54573
C         14.24863        9.58422       15.79809
C         13.04882        8.90866       15.77217
H         12.08273        9.29893       16.02037
C         13.35899        7.60712       15.34958
C         12.41124        6.48630       15.11476
H         12.16170        6.43230       14.05506
H         11.49309        6.64350       15.67695
H         12.86830        5.54182       15.40000
C         18.74143       10.65037       16.61659
H         19.19394       10.60150       15.62765
H         19.48789       10.99982       17.32449
H         17.92908       11.37828       16.58673
C         18.25352        9.31424       17.04502
C         18.59581        8.56773       18.15275
H         19.31046        8.82495       18.90758
C         17.82045        7.40209       18.07956
C         17.77675        6.28259       19.05666
H         16.97946        5.59637       18.78657
H         17.61108        6.66889       20.06230
H         18.72300        5.74459       19.05047
C         17.82142        3.87438       16.27712
H         17.76744        3.93939       17.36894
H         17.48015        2.86298       16.02743
C         20.46479        5.55749       16.56687
H         19.82558        6.43345       16.52020
H         21.39953        5.80415       16.07261
H         20.69334        5.36638       17.61116
C         19.72247        4.31427       13.83963
H         19.37257        3.43945       13.29964
H         20.73964        4.51269       13.51255
H         19.10522        5.16172       13.54561
C         20.73140        2.54102       16.14215
H         20.76000        2.34768       17.21007
H         21.75383        2.68955       15.80904
H         20.35815        1.64323       15.65990
C         14.91542        4.23210       13.79618
H         14.15169        3.74184       14.41641
H         14.38269        4.98939       13.20483
C         16.79930        3.66731       11.32119
H         16.28287        4.28104       10.59007
H         17.31559        2.88135       10.77769
H         17.55282        4.28282       11.80251
C         16.49027        1.52388       13.53139
H         17.45169        1.85622       13.90967
H         16.66798        0.67584       12.87666
H         15.90765        1.16585       14.37521
C         14.20633        2.06813       11.57469
H         13.51938        1.52417       12.21623
H         14.61882        1.35883       10.86345
H         13.62175        2.79061       11.01281
C         14.18276        3.94740       17.92709
H         13.12511        3.81815       17.65289
H         14.78033        3.16767       17.45441
C         14.33488        4.01176       19.44885
H         15.34813        3.72929       19.73206
H         13.63541        3.35281       19.95736
C         14.07964        5.49652       19.75147
H         14.83660        5.90002       20.42030
H         13.10424        5.64829       20.21053
C         14.13781        6.16953       18.36531
H         13.13175        6.47343       18.04535
H         14.79938        7.03539       18.32881
