45
CSD_code = DAJLAC | q = 0 | S = 0 | Stoichiometry = C16H24CrO2Si2 | MND = 9
Cr        10.12616        0.68786        9.77752
C          8.77486        0.04790       11.57362
C          9.35392        1.30726       11.78966
C          9.12161        2.36360       10.88712
C          8.34926        2.12788        9.74588
C          7.86104        0.84718        9.46475
C          8.10359       -0.20542       10.37634
C         10.71603       -0.76993        8.86270
O         11.12859       -1.73016        8.36660
C         11.74004        0.19973       10.99972
O         11.81443       -0.46539       11.98877
C         12.08881        1.04373       10.02646
C         13.15824        1.69476        9.51634
Si        12.89597        2.62212        7.89488
C         11.00596        2.67522        7.60411
C         13.68477        1.64487        6.45433
C         13.54081        4.42012        7.91944
Si        14.82252        1.37015       10.37825
C         14.65333        1.76818       12.23842
C         15.24951       -0.47503       10.14494
C         16.20807        2.45056        9.63435
H          8.88521       -0.73156       12.31608
H          9.86362        1.50639       12.72465
H          9.45711        3.36445       11.12471
H          8.08372        2.95379        9.09390
H          7.22344        0.68321        8.60491
H          7.65406       -1.17464       10.20217
H         10.74402        2.92375        6.58051
H         10.53709        3.41164        8.24904
H         10.58389        1.68288        7.82397
H         13.46365        2.09280        5.49035
H         13.31808        0.62271        6.43998
H         14.76385        1.60435        6.55684
H         13.22324        4.96188        7.03392
H         14.62394        4.43922        7.94232
H         13.18469        4.96617        8.78700
H         15.58160        1.58724       12.77211
H         13.88850        1.14352       12.68737
H         14.37495        2.80483       12.40354
H         16.14584       -0.75796       10.68865
H         15.40513       -0.71664        9.09801
H         14.43288       -1.09270       10.50508
H         17.16952        2.19057       10.06495
H         16.03884        3.50423        9.82625
H         16.28264        2.31689        8.56098
