53
CSD_code = DALZEV | q = 0 | S = 0 | Stoichiometry = C13H31B6CoSi2 | MND = 10
Co        12.32815        2.68941        6.30500
Si         8.88588        2.32624        5.25501
Si        10.46559        5.73562        6.09843
C         14.25208        2.02734        6.22050
C         13.45430        1.22034        5.37502
C         12.95887        2.03801        4.32898
C         13.42378        3.34625        4.53784
C         14.20702        3.35054        5.71796
C         10.34491        2.69753        6.40962
C         10.92249        4.00603        6.73417
C          7.38748        3.42480        5.70954
C          9.39684        2.50586        3.41930
C          8.30222        0.52353        5.49596
C          9.11561        6.44045        7.25253
C         12.01524        6.84897        6.22055
C          9.92844        5.83941        4.26756
B         13.16308        2.45751        9.78443
B         12.50738        0.83258        9.34074
B         11.94270        3.89341        7.94392
B         11.98152        2.30078        8.42286
B         10.94344        1.56726        7.34789
B         10.38842        3.07224        8.08592
H         13.35885        1.24959       10.23822
H         14.23033        2.83950        9.44870
H         12.68810        3.07510       10.67442
H         11.60139        0.36408        9.93933
H         13.10485        0.05448        8.68107
H         12.44556        4.85959        8.36692
H         10.56557        0.46742        7.24133
H          9.42180        3.33907        8.69206
H         14.86819        1.67929        7.03174
H         13.36266        0.14820        5.42921
H         12.39666        1.69353        3.47706
H         13.27712        4.18441        3.87580
H         14.78793        4.18144        6.08365
H          7.52760        4.46756        5.45001
H          7.18081        3.37401        6.77434
H          6.49936        3.07634        5.19053
H          9.68105        1.54152        3.00937
H          8.57101        2.87708        2.82037
H         10.23373        3.18026        3.28014
H          9.08685       -0.18763        5.25954
H          7.98953        0.33726        6.51837
H          7.45739        0.30308        4.84922
H          8.82985        7.44297        6.94858
H          9.48001        6.49729        8.27355
H          8.21781        5.83239        7.26260
H         11.85532        7.79489        5.71117
H         12.88193        6.37702        5.76876
H         12.26879        7.07354        7.25077
H          9.05091        5.24980        4.03508
H          9.70135        6.87283        4.02190
H         10.72586        5.52219        3.60314
