64
CSD_code = DANRAN | q = 0 | S = 0 | Stoichiometry = C24H30NO5PSi2W | MND = 6
W          1.51874        6.49413        9.28785
P          2.52182        4.26864        9.73328
H          2.66461        3.58625        8.50162
Si         0.23535        2.19273        9.67424
Si         1.51377        3.27823       12.53267
O          0.19786        9.17917        8.38684
O          3.90471        7.23190        7.38694
O         -0.88620        6.21204       11.27608
O          2.56804        8.44844       11.49136
O          0.17356        5.20669        6.76468
N          4.12410        4.21776       10.28328
C          1.73369        2.90893       10.65184
H          2.47649        2.10473       10.62121
C          0.73757        1.76203        7.87967
H         -0.02153        1.13723        7.41801
H          1.67336        1.21126        7.83795
H          0.84371        2.64739        7.26050
C         -0.18603        0.53333       10.51849
H         -0.41755        0.65327       11.57044
H          0.63717       -0.17030       10.44478
H         -1.04731        0.07590       10.04396
C         -1.29572        3.31858        9.60749
H         -1.06954        4.27777        9.14955
H         -1.70885        3.51108       10.59077
H         -2.07335        2.84855        9.01276
C          2.37182        1.81477       13.41190
H          2.32298        1.92207       14.49038
H          3.42048        1.74309       13.13604
H          1.90160        0.87039       13.15676
C         -0.29976        3.37887       13.10942
H         -0.88716        2.52530       12.79109
H         -0.79205        4.27558       12.75031
H         -0.33034        3.40796       14.19424
C          2.36668        4.89270       13.06394
H          2.07448        5.17435       14.07141
H          2.09199        5.70968       12.40013
H          3.44701        4.78909       13.05288
C          4.84446        3.01847       10.48733
C          5.79789        2.98983       11.50329
H          5.97438        3.88278       12.08462
C          6.50989        1.83439       11.76028
H          7.24331        1.82470       12.55272
C          6.28133        0.69083       11.01195
H          6.83237       -0.21355       11.21968
C          5.35066        0.71922        9.98820
H          5.18091       -0.16114        9.38579
C          4.64020        1.87592        9.72141
H          3.94399        1.90359        8.89459
C          4.95784        5.34856       10.03109
C          5.83103        5.32329        8.94859
H          5.85542        4.45138        8.30958
C          6.64682        6.40816        8.68890
H          7.31323        6.38576        7.83979
C          6.59894        7.52538        9.50651
H          7.22775        8.37694        9.29539
C          5.74956        7.54300       10.59870
H          5.71945        8.40398       11.24972
C          4.93729        6.45446       10.86883
H          4.31052        6.44297       11.74573
C          0.67798        8.19745        8.72710
C          3.06814        6.90689        8.09380
C          2.28863        7.62801       10.74419
C         -0.02083        6.22638       10.52697
C          0.65462        5.60117        7.72507
