45
CSD_code = DAPFAB | q = 0 | S = 0 | Stoichiometry = C19H20CrO4Si | MND = 9
Cr         2.48800        0.34061        4.60992
C          3.66008       -0.92291        4.01911
O          4.33661       -1.76733        3.61250
C          1.66158       -0.18501        3.07664
O          1.15851       -0.61678        2.13051
C          1.62612       -1.14245        5.22281
O          1.09085       -2.11678        5.54074
C          2.00289        2.50021        4.31948
C          1.34797        2.10462        5.49605
C          2.08423        1.51206        6.53098
C          3.47137        1.35818        6.42167
C          4.12285        1.77850        5.25097
C          3.40025        2.38200        4.21873
C          1.24391        3.14742        3.18297
O          1.75909        2.64424        1.98475
C          0.65109        6.75083        4.20698
C          0.49824        5.38267        4.06980
H          0.28670        2.28633        5.61626
H          1.58658        1.24621        7.45680
H          4.04265        0.96314        7.25202
H          5.20405        1.72359        5.19059
H          3.90299        2.76713        3.34251
H          0.17825        2.88873        3.26673
H         -0.64251        0.84651        1.09329
H         -1.39437        2.43149        1.18974
H         -1.13350        1.67884       -0.36647
H          3.25232        2.04952       -0.50548
H          2.37483        0.59809       -0.06378
H          1.93551        1.48375       -1.51288
H          1.78309        4.88037       -0.32406
Si         1.02836        2.61898        0.51000
C         -0.69936        1.82107        0.61762
C          2.26887        1.59117       -0.48689
C          0.82442        4.38726       -0.19124
C          1.39362        4.65135        3.30091
C          2.44504        5.30537        2.67530
C          2.59469        6.67402        2.80904
C          1.69971        7.39935        3.57671
H          0.33240        4.37146       -1.15831
H          0.22889        5.01419        0.46818
H          3.13066        4.73706        2.06611
H          3.41191        7.17583        2.31233
H          1.81577        8.46778        3.68096
H         -0.05298        7.31251        4.80296
H         -0.32603        4.88070        4.55693
