47
CSD_code = DEBREI | q = 0 | S = 0 | Stoichiometry = C17H27NSiTi | MND = 7
Ti         1.90890        2.17733        2.61399
Si        -0.64610        3.43412        2.37467
N          0.17372        2.26584        3.37402
C          3.37312        2.43959        4.05444
C          2.26769        0.18980        2.17453
C          1.40202        2.74026        0.38431
C          0.87860        3.71307        1.29517
C          2.00325        4.40633        1.81238
C          3.19080        3.90583        1.26306
C          2.83992        2.87672        0.34805
C          3.59673        2.10028       -0.54563
C          2.95121        1.19874       -1.35583
C          1.55482        1.04543       -1.30641
C          0.78136        1.79756       -0.45541
C         -1.15324        5.08045        3.22826
C         -2.18626        2.79178        1.42710
C         -0.30743        1.73902        4.63702
C          0.31904        0.35952        4.90281
C          0.08904        2.69992        5.77347
C         -1.83393        1.57244        4.63034
H          3.35790        1.76147        4.91826
H          3.34252        3.46756        4.44935
H          4.35633        2.30822        3.57427
H          1.36400       -0.27481        1.75192
H          2.60559       -0.44445        3.00457
H          3.04732        0.13839        1.40003
H          1.94131        5.26091        2.48097
H          4.18119        4.32563        1.38876
H          4.67069        2.22897       -0.60350
H          3.51806        0.59956       -2.05432
H          1.08752        0.32699       -1.96533
H         -0.29701        1.70095       -0.45976
H         -0.35093        5.48043        3.84186
H         -2.02063        4.94347        3.86613
H         -1.41173        5.83271        2.49000
H         -3.09023        2.94087        2.00818
H         -2.10757        1.73161        1.20530
H         -2.31226        3.32214        0.48864
H         -0.07800       -0.06151        5.82481
H          1.40304        0.45147        4.99133
H          0.08322       -0.31390        4.07878
H         -0.17592        2.28064        6.74162
H         -0.42504        3.64975        5.64982
H          1.16501        2.87641        5.74008
H         -2.32113        2.53598        4.51673
H         -2.16764        1.12285        5.56264
H         -2.13085        0.93224        3.80405
