102
CSD_code = DEDBUK | q = 0 | S = 0 | Stoichiometry = C36H58N5Si2Y | MND = 5
Y          6.40738        0.75820       12.55659
N          7.76566       -0.40390       11.07548
Si         5.30877       -2.12759       14.20103
C          5.00114       -3.14409       15.79052
H          4.41840       -2.58573       16.51363
H          5.93151       -3.42829       16.26647
H          4.45784       -4.05626       15.56413
N          4.78996        0.17546       10.99747
Si         6.14900        0.11592       15.97837
C          6.40081       -3.26596       13.11287
H          6.72557       -2.75744       12.21288
H          5.84464       -4.14713       12.80902
H          7.27971       -3.60916       13.64991
N          4.67353        2.18341       12.90571
C          3.57606       -2.08193       13.36981
H          3.62389       -1.64047       12.38176
H          2.86093       -1.51901       13.96269
H          3.18160       -3.08762       13.25911
N          7.43181        2.88447       12.47286
C          7.04730       -0.96456       17.28368
H          6.35250       -1.59724       17.82211
H          7.56135       -0.34859       18.01521
H          7.78524       -1.60924       16.81804
C          7.20819        1.70955       15.91187
H          7.03875        2.30682       16.80239
H          6.95352        2.33063       15.05673
H          8.26939        1.47956       15.88114
C          4.44921        0.61193       16.71825
H          4.53215        0.88860       17.76462
H          3.74393       -0.20967       16.64816
H          4.02458        1.45784       16.18728
N          6.03441       -0.57135       14.40199
C          7.31041       -1.39612       10.31265
C          8.25391       -2.47800        9.82209
H          9.20719       -2.44311       10.34245
H          8.43907       -2.37722        8.75449
H          7.79921       -3.45322        9.98655
C          5.99666       -1.55637        9.87588
H          5.85151       -2.40437        9.22097
C          4.84611       -0.78826       10.10539
C          3.64730       -1.14014        9.25001
H          3.25551       -0.25109        8.75789
H          2.85291       -1.57139        9.85954
H          3.91937       -1.86490        8.48878
C          3.54625        0.91000       11.16556
H          2.66169        0.28330       10.99686
H          3.51868        1.74158       10.44318
C          3.43956        1.49552       12.58573
H          2.56724        2.16166       12.60401
H          3.27327        0.67704       13.30060
C          4.65445        3.28409       13.61981
C          3.39171        3.77894       14.29060
H          2.86220        2.95990       14.77322
H          2.72439        4.23423       13.55786
H          3.63139        4.52836       15.03935
C          5.77748        4.11572       13.72530
H          5.63730        5.02416       14.29240
C          7.00262        3.99187       13.06965
C          7.86241        5.23648       13.04462
H          8.77849        5.07765       13.60925
H          7.33288        6.08207       13.47395
H          8.14513        5.48055       12.02180
C          9.16934       -0.19842       11.06244
C          9.80458        0.20584        9.87799
C          9.04415        0.44370        8.60599
H          9.43129        1.32823        8.10658
H          7.98360        0.58146        8.79908
H          9.16499       -0.39963        7.92529
C         11.17970        0.38753        9.86861
H         11.65368        0.69576        8.94764
C         11.95450        0.17195       10.99444
C         13.44308        0.35064       10.96934
H         13.77416        0.70868        9.99787
H         13.94392       -0.59442       11.17835
H         13.75559        1.06513       11.72996
C         11.31418       -0.22570       12.16003
H         11.90589       -0.41435       13.04632
C          9.30184       -0.87162       13.49081
H          8.51812       -0.17100       13.81858
H         10.04474       -0.95546       14.28181
H          8.82980       -1.84459       13.35507
C          9.94249       -0.41012       12.21533
C          8.57026        3.04530       11.63330
C          8.34078        3.32029       10.27671
C          6.93215        3.34257        9.75819
H          6.92190        3.49186        8.68058
H          6.36232        4.14494       10.22898
H          6.42827        2.39813        9.99787
C          9.41311        3.58733        9.44392
H          9.22689        3.83086        8.40627
C         10.71922        3.56582        9.91452
C         11.86732        3.88985        9.00586
H         12.78401        3.42891        9.36501
H         12.02359        4.96875        8.96698
H         11.67092        3.54529        7.99269
C         10.93082        3.26051       11.24802
H         11.93999        3.23637       11.63375
C          9.88010        3.00792       12.11865
C         10.18056        2.72633       13.56196
H          9.27288        2.47728       14.10555
H         10.64521        3.59480       14.03068
H         10.88028        1.89668       13.63935
