126
CSD_code = DIFTIY | q = 0 | S = 0 | Stoichiometry = C48H70N2O3PScSi | MND = 4
Sc         4.57975        5.24973        4.89728
O          5.64311        6.77460        4.76122
O          4.66839        4.45353        6.61166
O          4.60844        4.19278        3.31893
N          2.90402        6.66737        4.56451
N          1.51785        6.51097        4.59165
Si        -0.82200        5.19720        5.08115
P          3.00851        8.15550        3.91568
C          5.70359        8.13817        4.66351
C          7.12855        8.58034        4.26621
H          7.82846        8.22318        5.01707
H          7.19915        9.66303        4.19474
H          7.39564        8.13514        3.31114
C          5.31805        8.80583        5.99770
H          4.32368        8.46697        6.29281
H          5.32357        9.89128        5.91797
H          6.02284        8.49788        6.76688
C          4.72649        8.63249        3.55070
H          4.99874        8.15086        2.60663
H          4.77997        9.71544        3.41944
C          2.25294        9.46577        4.92877
C          2.39638       10.79828        4.55496
H          2.94909       11.05291        3.66081
C          1.82491       11.79753        5.32160
H          1.93801       12.83117        5.02921
C          1.10861       11.47354        6.46297
H          0.66567       12.25613        7.06049
C          0.96047       10.14751        6.83473
H          0.40170        9.89403        7.72323
C          1.52935        9.14521        6.06936
H          1.41584        8.10818        6.34487
C          2.08427        8.15012        2.34703
C          1.07860        9.05469        2.03843
H          0.83885        9.85546        2.72261
C          0.37522        8.91989        0.85340
H         -0.40791        9.62384        0.61296
C          0.66517        7.88246       -0.01695
H          0.10941        7.78018       -0.93703
C          1.65961        6.96935        0.29748
H          1.87982        6.15280       -0.37362
C          2.36604        7.10118        1.47762
H          3.13036        6.38256        1.74537
C          5.09403        4.15071        7.83594
C          4.24163        4.33515        8.96372
C          4.70912        4.02372       10.22929
H          4.08155        4.16858       11.09264
C          5.97679        3.51955       10.43007
H          6.31994        3.28248       11.42647
C          6.79897        3.31523        9.34182
H          7.77995        2.91113        9.52557
C          6.39579        3.61521        8.05038
C          2.80099        4.81715        8.79782
C          2.76129        6.17720        8.08871
H          3.25875        6.92795        8.70150
H          1.72622        6.48304        7.93403
H          3.26856        6.13310        7.12143
C          2.04150        3.75263        7.99552
H          2.57245        3.53252        7.07359
H          1.03266        4.09130        7.76121
H          1.97729        2.83322        8.57523
C          2.05378        5.00016       10.12679
H          1.97183        4.06293       10.67144
H          1.04383        5.35116        9.91777
H          2.54177        5.73910       10.75820
C          7.38692        3.42330        6.90038
C          7.82521        4.81535        6.42338
H          6.96895        5.39548        6.06302
H          8.56143        4.73264        5.62568
H          8.27646        5.35740        7.25409
C          6.76499        2.60878        5.75605
H          6.33250        1.69039        6.14998
H          7.52510        2.34169        5.02343
H          5.97859        3.16982        5.24095
C          8.65763        2.66733        7.32158
H          9.23515        3.22682        8.05311
H          9.28998        2.52274        6.44710
H          8.41597        1.68806        7.72799
C          4.89338        3.22816        2.44724
C          4.03779        2.09668        2.32040
C          4.42243        1.04238        1.50964
H          3.80607        0.16247        1.43077
C          5.59553        1.07878        0.78445
H          5.88857        0.23597        0.17584
C          6.37047        2.21982        0.81536
H          7.25468        2.24270        0.20072
C          6.03985        3.30867        1.60592
C          2.68851        2.05022        3.03610
C          1.84847        0.81839        2.66911
H          2.33001       -0.10181        2.99041
H          1.66340        0.77049        1.59869
H          0.88585        0.88276        3.17434
C          1.87379        3.28278        2.61620
H          0.89870        3.28575        3.10020
H          1.72565        3.27344        1.53734
H          2.39532        4.20092        2.88205
C          2.89568        2.00930        4.55526
H          3.45651        2.88503        4.89816
H          3.46173        1.11950        4.82574
H          1.93469        1.97710        5.06793
C          6.90391        4.56929        1.54428
C          6.01083        5.78395        1.26003
H          5.43634        5.62714        0.34795
H          6.61831        6.68066        1.13788
H          5.32729        5.93314        2.09498
C          7.63485        4.76502        2.87682
H          6.91420        4.95938        3.67715
H          8.31723        5.61220        2.81355
H          8.21045        3.87295        3.11762
C          7.96447        4.51903        0.43495
H          8.70463        3.74588        0.62568
H          8.48721        5.47395        0.39978
H          7.51052        4.34844       -0.53856
C          1.05239        5.41126        5.01116
H          1.76538        4.62851        5.32366
C         -1.50114        6.28154        6.50212
H         -2.58116        6.20065        6.58091
H         -1.25981        7.32753        6.33589
H         -1.08324        5.99421        7.46298
C         -1.53263        5.79326        3.41514
H         -1.21660        5.15143        2.59817
H         -1.17877        6.79557        3.19269
H         -2.61814        5.81279        3.41968
C         -1.23663        3.36360        5.40757
H         -2.29919        3.23310        5.58846
H         -0.70918        2.97947        6.27585
H         -0.97462        2.73466        4.56188
