76
CSD_code = DIVBUH | q = 0 | S = 0 | Stoichiometry = C26H40Cl4HfN4Si | MND = 6
Hf         3.57032        9.41787        4.85468
Cl         4.00670        9.31488        7.20028
Cl         1.92109       11.10461        5.11378
Si         3.57046        6.43461        4.85646
N          0.53967        8.56320        6.23627
H          0.74798        9.36227        5.62671
N          2.36573        7.65110        5.25277
C         -0.44410        8.90156        7.26962
C          0.29063        9.34700        8.53680
H          0.74169        8.49851        9.04279
H         -0.40355        9.82911        9.21951
H          1.07642       10.05378        8.27912
C         -1.38874        7.73482        7.56011
H         -1.79608        7.33774        6.63363
H         -2.21272        8.08894        8.17395
H         -0.88707        6.93402        8.09412
C         -1.24187       10.07481        6.69613
H         -0.57935       10.90752        6.47371
H         -1.98900       10.40767        7.41098
H         -1.74822        9.77853        5.78062
C          1.41747        7.57350        6.14718
C          1.33097        6.38541        7.02808
C          2.05690        6.38707        8.21269
H          2.64417        7.25735        8.46747
C          2.05128        5.27589        9.04488
C          1.31634        4.15819        8.66353
H          1.30430        3.28720        9.30258
C          0.61092        4.14658        7.47329
H          0.05307        3.26765        7.18652
C          0.61605        5.25763        6.64771
H          0.06385        5.25795        5.72055
C          2.81513        5.28752       10.33208
H          3.30285        4.32983       10.50059
H          2.13686        5.46780       11.16638
H          3.56457        6.07415       10.32730
C          4.33667        5.35891        6.22767
H          5.18911        4.81224        5.83760
H          3.62337        4.63435        6.60223
H          4.67805        5.96182        7.06351
N          6.60398        8.56218        3.48145
H          6.39429        9.36146        4.09025
N          4.77571        7.65099        4.46142
C          7.58872        8.90111        2.44922
C          6.85492        9.35005        1.18275
H          6.40091        8.50344        0.67626
H          7.55032        9.83055        0.50015
H          6.07151       10.05909        1.44148
C          8.53186        7.73371        2.15671
H          8.93784        7.33375        3.08254
H          9.35689        8.08813        1.54444
H          8.02950        6.93496        1.62029
C          8.38783       10.07219        3.02527
H          7.72627       10.90533        3.24899
H          9.13563       10.40546        2.31132
H          8.89346        9.77344        3.94038
C          5.72566        7.57280        3.56889
C          5.81364        6.38444        2.68852
C          5.08949        6.38542        1.50282
H          4.50227        7.25538        1.24682
C          5.09696        5.27404        0.67093
C          5.83178        4.15677        1.05376
H          5.84525        3.28562        0.41497
C          6.53530        4.14580        2.24513
H          7.09307        3.26720        2.53304
C          6.52847        5.25711        3.07032
H          7.07927        5.25798        3.99832
C          4.33526        5.28500       -0.61755
H          3.84749        4.32736       -0.78619
H          5.01497        5.46444       -1.45085
H          3.58606        6.07187       -0.61459
C          2.80413        5.36078        3.48381
H          1.95078        4.81462        3.87262
H          3.51701        4.63580        3.10924
H          2.46408        5.96471        2.64814
Cl         3.13185        9.30891        2.50820
Cl         5.21724       11.10641        4.59278
