96
CSD_code = DODYUT | q = -1 | S = 0 | Stoichiometry = C36H55P3RhSi(1-) | MND = 5
Rh         9.09226        5.24975        5.06941
Si         9.09189        5.24913        7.35355
P          7.03785        4.28572        5.39531
C          6.35028        4.73138        7.04949
C          6.76977        2.40665        5.57797
H          7.16669        1.99116        4.64191
C          7.30359        5.05143        8.02366
C          5.00230        4.74647        7.38467
H          4.24175        4.54893        6.64216
C          7.64432        1.91290        6.72199
H          8.65561        2.29559        6.60651
H          7.68388        0.82227        6.74304
H          7.26048        2.26178        7.68038
C          5.45989        6.14036        4.08325
H          5.11465        6.58959        5.01299
H          4.75850        6.40015        3.28813
H          6.44133        6.55257        3.84108
C          5.59735        4.63280        4.22594
H          4.65861        4.21388        4.60171
C          5.34802        1.89001        5.77606
H          4.90464        2.31678        6.67304
H          5.37926        0.80568        5.90214
H          4.70613        2.10398        4.92498
C          6.89214        5.34560        9.30916
H          7.62940        5.60432       10.05714
C          5.94028        4.01131        2.87670
H          6.95725        4.30151        2.60853
H          5.25880        4.36421        2.10071
H          5.88832        2.92424        2.91029
C          4.60432        5.05102        8.67690
H          3.54960        5.06801        8.92468
C          5.54821        5.33718        9.64669
H          5.23465        5.57176       10.65664
H          9.09296        5.24881        3.49218
P         10.95360        3.95188        5.39526
C         10.91140        3.13385        7.04950
C         12.71481        4.65955        5.57826
H         12.87610        5.21089        4.64213
C         10.15756        3.79947        8.02367
C         11.57229        1.95889        7.38465
H         12.12361        1.39898        6.64213
C         12.70522        5.66388        6.72221
H         11.86818        6.34835        6.60664
H         13.62996        6.24344        6.74332
H         12.59491        5.15699        7.68058
C         10.13645        1.65806        4.08315
H          9.92001        1.13442        5.01286
H         10.26234        0.92083        3.28800
H          9.28873        2.30188        3.84094
C         11.37332        2.53084        4.22591
H         12.20552        1.92747        4.60187
C         13.87304        3.68654        5.77633
H         13.72514        3.08915        6.67329
H         14.79647        4.25578        5.90240
H         14.00870        3.02369        4.92524
C         10.10850        3.29597        9.30917
H          9.51571        3.80502       10.05713
C         11.74020        3.13891        2.87686
H         10.98044        3.87449        2.60851
H         11.77541        2.37221        2.10095
H         12.70761        3.63746        2.91051
C         11.50754        1.46196        8.67689
H         12.02014        0.54001        8.92465
C         10.78776        2.13630        9.64668
H         10.74132        1.74738       10.65661
P          9.28468        7.51033        5.39523
C         10.01438        7.88258        7.04939
C          7.79124        8.68167        5.57825
H          7.23318        8.54561        4.64211
C          9.81489        6.89684        8.02350
C         10.70155        9.04238        7.38451
H         10.91085        9.79976        6.64198
C          6.92637        8.17117        6.72229
H          6.75223        7.10402        6.60675
H          5.96205        8.68214        6.74352
H          7.42060        8.32909        7.68061
C         11.67980        7.94913        4.08290
H         12.24157        8.02355        5.01258
H         12.25528        8.42671        3.28769
H         11.54609        6.89306        3.84073
C         10.30558        8.58405        4.22569
H         10.41212        9.60648        4.60154
C          8.05484       10.17122        5.77627
H          8.64621       10.34184        6.67320
H          7.10019       10.68637        5.90235
H          8.56105       10.62007        4.92513
C         10.27546        7.10612        9.30903
H         10.13091        6.33828       10.05700
C          9.59543        8.59767        2.87668
H          9.33820        7.57192        2.60836
H         10.24186        9.01143        2.10076
H          8.68003        9.18628        2.91033
C         11.16430        9.23473        8.67675
H         11.70652       10.13959        8.92449
C         10.94011        8.27424        9.64654
H         11.30011        8.42850       10.65648
