61
CSD_code = DODZEC | q = 0 | S = 0 | Stoichiometry = C23H32CrO4Si | MND = 9
Cr         0.81204        3.09349        4.02437
Si        -1.96403        3.51548        6.44618
O          3.35754        3.56740        2.55855
O          1.72399        5.65166        5.23080
C          1.36590        4.63465        4.80664
O         -0.10787        5.08174        2.01260
C          3.10557       -1.82906        0.30527
H          3.26093       -0.90972       -0.25096
H          3.98407       -2.45013        0.13626
C          2.37454        3.33528        3.12423
O          1.82777       -0.12135        3.35384
C          0.21038        4.27761        2.78365
C         -2.29667        5.05717        5.37900
H         -2.90651        5.78170        5.90918
H         -2.81540        4.80653        4.45861
H         -1.36439        5.54272        5.10175
C          4.21377       -1.19144        2.52262
H          4.56369       -0.22729        2.16124
H          4.99027       -1.92913        2.33505
H          4.04997       -1.11589        3.59340
C          0.47172        2.00404        5.94901
H          0.75703        2.26698        6.96070
C          1.90396        0.67311        1.07987
H          2.92136        1.05450        1.11607
H          1.24903        1.47639        1.41399
H          1.64445        0.43608        0.05345
C         -1.12776        1.97614        4.16825
H         -2.10842        2.21450        3.77008
C         -3.57271        2.53523        6.77489
H         -4.28180        3.14576        7.32419
H         -3.38948        1.63947        7.36137
H         -4.05405        2.22966        5.85075
C          0.51588       -1.41430        1.67694
H         -0.10655       -1.53136        2.56434
H         -0.09440       -0.97871        0.88493
C         -0.29901        1.12739        3.40573
H         -0.66180        0.75457        2.45817
C         -1.13459        4.00567        8.08919
H         -1.78154        4.66749        8.65560
H         -0.20235        4.53428        7.91416
H         -0.92303        3.14573        8.71806
C          1.10273       -2.76581        1.25971
H          0.36751       -3.56996        1.25335
C         -0.79434        2.39353        5.46219
C          1.32538        1.19900        5.19825
H          2.25991        0.83413        5.60632
C          0.94296        0.72861        3.91518
C          1.85477       -3.03395        3.71189
H          1.14866       -3.85425        3.83254
H          1.39841       -2.12928        4.09091
H          2.72593       -3.24611        4.32743
C          1.76796       -0.55396        1.98612
C          2.93306       -1.59016        1.81573
C          3.12032       -4.18201        1.97495
H          2.56553       -5.06181        2.29651
H          4.04214       -4.13882        2.55079
H          3.37582       -4.31849        0.93125
C          1.80857       -2.56041       -0.08862
H          2.00857       -3.51089       -0.58190
H          1.19281       -1.96797       -0.76573
C          2.27508       -2.93409        2.24432
