64
CSD_code = DODZIG | q = 0 | S = 0 | Stoichiometry = C24H32CrO6Si | MND = 9
Cr         4.18724       -8.77144      -10.42616
Si         0.83290       -9.31666      -11.94957
O          5.23059       -5.61426       -9.93584
O          3.90971      -10.99599       -8.47229
O          5.05510      -11.12205      -12.02860
O          6.96942       -8.98009       -9.39235
O          3.76547       -4.93600       -6.90215
O          3.61351       -3.83636       -8.84047
C          1.38118      -10.04180      -13.62297
C          0.60980      -10.70943      -10.66918
C         -0.77272       -8.29441      -12.14504
C          4.22689       -6.44769      -10.29613
C          4.21315       -6.82537      -11.65730
C          3.21518       -7.67200      -12.13924
C          2.18648       -8.15613      -11.30732
C          2.23665       -7.78827       -9.95357
C          3.22079       -6.92382       -9.44433
C          5.48893       -5.40417       -8.56770
C          6.90039       -4.81166       -8.35466
C          7.17453       -4.97809       -6.84737
C          6.25622       -3.93003       -6.18935
C          5.55431       -3.28599       -7.39155
C          4.55199       -4.34464       -7.91574
C          6.65265       -3.28437       -8.47336
C          6.17872       -2.81399       -9.84657
C          7.85952       -2.41846       -8.10776
C          7.95074       -5.43660       -9.25016
C          3.97236      -10.10779       -9.21404
C          5.89474       -8.86695       -9.80843
C          4.70836      -10.18246      -11.44665
C          2.62539       -4.12174       -6.74468
C          2.47176       -3.43256       -8.11700
H          0.68229      -10.80211      -13.95607
H          2.35897      -10.50822      -13.54446
H          1.42961       -9.28691      -14.40223
H         -0.02353      -11.50056      -11.05748
H          0.15015      -10.35011       -9.75338
H          1.56825      -11.14941      -10.40545
H         -1.58529       -8.92541      -12.49030
H         -0.65405       -7.49023      -12.86562
H         -1.08250       -7.84863      -11.20426
H          4.95635       -6.39179      -12.31401
H          3.18929       -7.89553      -13.19949
H          1.43398       -8.09632       -9.29200
H          3.16496       -6.59384       -8.41604
H          5.38291       -6.35490       -8.02817
H          6.94357       -5.98933       -6.51557
H          8.22545       -4.79479       -6.62955
H          5.53510       -4.39108       -5.51607
H          6.81612       -3.18571       -5.62551
H          5.08530       -2.32505       -7.18419
H          5.90552       -1.76137       -9.79581
H          5.32115       -3.37142      -10.20079
H          6.98430       -2.92181      -10.56917
H          7.54901       -1.37800       -8.03398
H          8.60949       -2.48982       -8.89186
H          8.32413       -2.69915       -7.17035
H          8.00759       -6.50699       -9.06588
H          8.92431       -4.99617       -9.05097
H          7.69752       -5.28272      -10.29494
H          2.78233       -3.38816       -5.94487
H          1.78369       -4.76616       -6.48722
H          1.58957       -3.76985       -8.66643
H          2.44392       -2.34142       -8.02084
