82
CSD_code = DOMRAB | q = 0 | S = 0 | Stoichiometry = C27H47FeN5Si2 | MND = 5
C          9.96545        8.91341        6.69500
H         10.79864        8.27346        6.89801
C          9.96450       10.19330        6.26393
H         10.77991       10.84837        6.03719
C          8.02399       11.70747        5.74339
C          8.60109       12.87343        5.27496
H          9.67221       12.96848        5.19788
C          7.76446       13.92404        4.91210
H          8.18309       14.84782        4.54640
C          6.38546       13.77771        5.02288
H          5.72087       14.57955        4.74422
C          5.88937       12.57564        5.49274
C          3.38919       12.85491        5.46107
H          3.31490       13.83404        5.03539
C          2.42367       12.00785        5.87861
H          1.36249       12.14488        5.87553
C          4.37920       10.97682        6.23425
C          7.81975        9.52511        6.50681
C          8.24962        7.16417        7.19191
C          6.81229        7.18305        7.70890
H          6.76158        7.69956        8.66268
H          6.45189        6.16610        7.83824
H          6.17124        7.70795        6.99735
C          8.33932        6.30659        5.92338
H          7.67523        6.70689        5.16119
H          8.05512        5.27979        6.13794
H          9.35414        6.30908        5.53072
C          9.16569        6.59918        8.28388
H         10.16108        6.38348        7.90458
H          8.74678        5.67193        8.66579
H          9.24907        7.30461        9.10762
C          2.33064        9.76520        6.98166
C          3.20318        8.51196        6.93832
H          3.31064        8.16262        5.91580
H          2.75068        7.72455        7.53497
H          4.19637        8.74067        7.33134
C          2.05755       10.16440        8.43726
H          2.99810       10.34670        8.95123
H          1.51798        9.37460        8.95323
H          1.46158       11.07389        8.47881
C          1.01295        9.48247        6.25073
H          0.28059       10.26741        6.42051
H          0.59014        8.54896        6.61262
H          1.18736        9.38987        5.18109
C          5.69073        9.17250        4.63468
H          5.83824        8.10851        4.85545
H          4.63040        9.27872        4.38916
C          6.19791       11.31301        2.39150
H          5.15712       11.56071        2.57433
H          6.36835       11.38580        1.32147
H          6.80396       12.07318        2.87198
C          6.07941        8.33668        1.66973
H          6.32741        7.31286        1.93350
H          6.56473        8.55608        0.72321
H          5.00740        8.37821        1.50338
C          8.52143        9.41430        3.14702
H          8.97654       10.35190        3.44755
H          8.94146        9.14248        2.18306
H          8.82785        8.65624        3.85927
C          6.12736       10.48712        8.44072
H          5.26071        9.95539        8.85151
H          7.00576        9.97768        8.84681
C          6.05181       12.08055       11.10419
H          5.11486       11.63043       11.41875
H          6.12006       13.05555       11.57774
H          6.85549       11.46835       11.50162
C          4.71628       13.36192        8.68191
H          4.94986       13.91214        7.77699
H          4.50783       14.08967        9.46063
H          3.80163       12.80747        8.50369
C          7.79693       13.11901        8.80519
H          8.63845       12.43381        8.82591
H          7.99501       13.90245        9.53063
H          7.77470       13.57958        7.82366
Fe         5.99644       10.02369        6.46088
N          8.65737        8.51860        6.85139
N          8.64786       10.55589        6.15297
N          6.68792       11.54881        5.85379
N          4.57947       12.21377        5.68366
N          3.03369       10.86360        6.33666
Si         6.61495        9.56574        3.04859
Si         6.15881       12.20904        9.18827
