79
CSD_code = DUHGES | q = 0 | S = 0 | Stoichiometry = C27H49Si2Y | MND = 11
Y          4.43509        2.51324        0.41282
Si         2.43441        2.01165       -2.45096
Si         1.58768        4.43563       -0.45267
C          2.94119        3.33647       -1.19642
C          4.02875        1.02011       -2.86969
C          1.15764        0.74562       -1.79378
C          1.73459        2.70565       -4.08915
C          1.17902        5.94782       -1.55218
C          2.23293        5.10525        1.23592
C         -0.06032        3.54496       -0.07931
C          6.86852        2.99710        0.21735
C          6.86771        3.17070       -1.20320
C          6.35863        4.44183       -1.49262
C          6.07096        5.10791       -0.27864
C          6.37141        4.24372        0.79179
C          7.77915        2.02603        0.93414
C          7.46465        2.19602       -2.17581
C          6.16815        5.02644       -2.85861
C          5.56854        6.51772       -0.17982
C          6.52183        4.63178        2.24333
C          3.72457        1.06902        2.19223
C          4.47231        1.60395        3.33500
C          5.60755        0.84624        3.51841
C          5.61846       -0.21260        2.55423
C          4.48902       -0.11666        1.77019
C          2.20197        0.98343        2.30409
C          3.96245        2.71561        4.20665
C          6.66258        1.02220        4.56491
C          6.69244       -1.24949        2.47076
C          4.01303       -1.11631        0.75108
H          3.60387        4.01814       -1.74663
H          3.81842        0.16452       -3.50439
H          4.52425        0.64568       -1.96619
H          4.73958        1.64627       -3.39948
H          1.33939        0.47840       -0.75750
H          0.15119        1.14174       -1.85467
H          1.18288       -0.16967       -2.37730
H          2.42100        3.41481       -4.53991
H          1.54781        1.92103       -4.81577
H          0.79716        3.22374       -3.91597
H          2.04948        6.58099       -1.69189
H          0.39329        6.56173       -1.12298
H          0.84872        5.62929       -2.53505
H          2.04149        4.39295        2.03766
H          1.73870        6.03199        1.51313
H          3.30521        5.30930        1.20241
H          0.09321        2.60946        0.44683
H         -0.59516        3.32514       -0.99595
H         -0.70544        4.16587        0.53449
H          7.51122        1.92161        1.98351
H          8.80960        2.39020        0.88479
H          7.75608        1.03911        0.46982
H          7.12998        2.40243       -3.18988
H          7.20410        1.16562       -1.92731
H          8.55436        2.27424       -2.16451
H          5.42459        5.82044       -2.83745
H          5.83862        4.26751       -3.56803
H          7.10176        5.45045       -3.23336
H          5.47028        6.82651        0.85848
H          4.59691        6.63190       -0.66591
H          6.26566        7.19950       -0.66801
H          6.49475        3.75780        2.89408
H          5.74008        5.32291        2.56298
H          7.48290        5.13065        2.39452
H          1.74459        0.58222        1.39993
H          1.75111        1.95368        2.51633
H          1.94535        0.31091        3.12802
H          4.74352        3.07900        4.87068
H          3.13992        2.35763        4.83018
H          3.59635        3.56005        3.61628
H          7.65724        0.84865        4.15464
H          6.51389        0.30622        5.37489
H          6.63720        2.02222        4.99357
H          7.68128       -0.79141        2.43795
H          6.57066       -1.86971        1.58631
H          6.65991       -1.89854        3.34652
H          4.84651       -1.52805        0.18090
H          3.30455       -0.67391        0.04765
H          3.51494       -1.95104        1.25005
