113
CSD_code = EFECUO | q = 0 | S = 0 | Stoichiometry = C37H68N3OSi3Y | MND = 4
Y          3.19938       15.10291        9.37434
Si         5.38801       13.05981       10.80820
Si         1.17566       17.94159        8.79127
Si         2.71718       16.86885        6.48033
O          2.13017       13.16803        8.05793
N          2.80141       14.21844       11.20964
N          5.19028       14.06511        9.43766
N          2.25792       16.76171        8.13946
C          1.84613       14.57605       12.18772
C          0.55529       14.01889       12.16663
C         -0.36545       14.38935       13.13543
H         -1.35838       13.96328       13.12314
C         -0.03326       15.29791       14.12115
H         -0.76176       15.58033       14.86718
C          1.23548       15.84706       14.14710
H          1.48358       16.56357       14.91586
C          2.18521       15.48992       13.20380
C          3.55601       16.12935       13.20089
H          4.21572       15.50606       12.58707
C          3.45920       17.50778       12.53800
H          3.13160       17.39814       11.49852
H          4.42691       18.00612       12.55719
H          2.73950       18.13201       13.06489
C          4.16921       16.23746       14.59684
H          3.64514       16.97011       15.20569
H          5.21011       16.54679       14.52231
H          4.13193       15.27625       15.10438
C          0.17465       13.02573       11.09139
H          1.03122       12.93578       10.41057
C         -0.11071       11.65634       11.71357
H          0.75943       11.30188       12.26181
H         -0.35899       10.92499       10.94536
H         -0.94725       11.71566       12.40611
C         -1.02628       13.51317       10.27741
H         -1.89975       13.64720       10.91108
H         -1.27792       12.78797        9.50507
H         -0.79591       14.46474        9.80223
C          3.65193       13.11274       11.65706
H          3.13226       12.15363       11.48842
H          3.78928       13.17170       12.74526
C          5.75580       11.17671       10.62425
H          5.15780       10.68603        9.86189
H          5.55207       10.67285       11.56511
H          6.79758       10.99907       10.38490
C          6.75276       13.64318       12.02916
H          7.68575       13.78512       11.49186
H          6.93214       12.90382       12.80317
H          6.50885       14.57969       12.52059
C          6.24559       14.56506        8.66351
C          6.73613       15.87323        8.87935
C          7.73294       16.38392        8.06269
H          8.09688       17.38751        8.22939
C          8.28088       15.63391        7.04062
H          9.05657       16.04660        6.41272
C          7.82684       14.34546        6.84098
H          8.26105       13.75215        6.04961
C          6.82790       13.79952        7.63116
C          6.38814       12.37871        7.36828
H          5.59852       12.14418        8.08465
C          7.55474       11.41264        7.58925
H          8.31211       11.53975        6.81916
H          7.20703       10.38189        7.55946
H          8.01876       11.59673        8.55451
C          5.83041       12.20408        5.95306
H          4.99410       12.87722        5.78287
H          5.49368       11.17827        5.80713
H          6.59133       12.41789        5.20633
C          6.19358       16.74859        9.99050
H          5.46273       16.16045       10.57299
C          5.48307       17.98048        9.41384
H          6.15425       18.53402        8.75979
H          5.16921       18.64731       10.21500
H          4.60116       17.68882        8.83603
C          7.31290       17.18083       10.94288
H          7.87043       16.31616       11.29222
H          6.89697       17.69747       11.80594
H          8.00636       17.85586       10.44727
C          0.32240       17.20345       10.34005
H         -0.72505       16.99246       10.14941
H          0.36010       17.89179       11.17774
H          0.79366       16.27405       10.66043
C          2.05679       19.56217        9.32393
H          2.70230       19.42034       10.18480
H          1.32872       20.32348        9.58652
H          2.66644       19.95578        8.51814
C         -0.21896       18.48335        7.60364
H          0.18783       19.00009        6.74232
H         -0.91054       19.15859        8.09734
H         -0.79031       17.63750        7.23710
C          3.39602       18.56826        5.92676
H          2.63536       19.33422        6.03111
H          3.70031       18.54629        4.88503
H          4.25578       18.87589        6.51286
C          1.30005       16.45069        5.24914
H          1.64418       15.83369        4.42425
H          0.89314       17.36042        4.82162
H          0.48106       15.93061        5.73421
C          4.12472       15.59959        6.19928
H          5.09455       16.02286        6.44413
H          4.16868       15.28682        5.16013
H          3.98972       14.70251        6.81028
C          2.57750       11.81201        8.05637
H          3.10318       11.63569        8.99571
H          3.25847       11.64523        7.21090
C          1.30245       10.99034        7.88897
H          0.79193       10.90218        8.84682
H          1.50011        9.99388        7.50188
C          0.48698       11.85292        6.91861
H         -0.57139       11.85125        7.16916
H          0.59340       11.49395        5.89592
C          1.10488       13.25718        7.06261
H          1.54489       13.59005        6.11485
H          0.38965       14.00913        7.40351
