78
CSD_code = EFOCOR | q = 0 | S = 0 | Stoichiometry = C25H47P4RhSi | MND = 5
Rh        -0.06425        5.13040        0.44578
P          0.71010        3.86875       -1.31483
P         -2.53965        5.32050        0.54092
P          0.79242        6.65105        1.98909
P          0.17406        3.33425        1.88449
Si         0.09176        6.82229       -1.20194
C          1.78566        7.75827       -1.45909
C         -1.10438        8.32980       -1.45499
C         -0.01353        5.91214       -2.91174
C          1.04829        4.83563       -2.84965
C          2.32007        3.01406       -1.11238
C          3.36867        3.85188       -0.73479
C          4.62985        3.34852       -0.48925
C          4.85903        1.98422       -0.59411
C          3.81956        1.13965       -0.94127
C          2.55629        1.64689       -1.19920
C         -0.32087        2.54793       -2.06991
C         -1.60096        2.35372       -1.57247
C         -2.45244        1.42255       -2.13857
C         -2.02528        0.66961       -3.21891
C         -0.75043        0.85907       -3.72893
C          0.09688        1.79436       -3.16386
C         -3.14807        6.88528        1.30232
C         -3.64921        4.17486        1.48419
C         -3.53690        5.38660       -1.01121
C          0.33576        8.43459        1.94913
C          2.62554        6.85769        2.00762
C          0.53691        6.42962        3.80891
C         -0.78899        3.15507        3.45408
C          1.87978        3.06982        2.53225
C         -0.10642        1.61639        1.28423
H          2.65051        7.11737       -1.31873
H          1.83124        8.15063       -2.47113
H          1.88905        8.60066       -0.78270
H         -1.09474        8.98959       -0.59559
H         -0.77873        8.90771       -2.31337
H         -2.13162        8.03376       -1.63064
H         -0.98993        5.44529       -3.05141
H          0.15837        6.57615       -3.75825
H          2.03822        5.28840       -2.75603
H          1.04776        4.17837       -3.72486
H          3.16172        4.90854       -0.61247
H          5.43457        4.01234       -0.20557
H          5.84197        1.58187       -0.39649
H          3.99070        0.07453       -1.01232
H          1.75999        0.96744       -1.47153
H         -1.91257        2.96059       -0.73024
H         -3.44929        1.28341       -1.74237
H         -2.68357       -0.06054       -3.66729
H         -0.41713        0.27531       -4.57565
H          1.08739        1.93571       -3.57544
H         -2.78273        6.94241        2.32653
H         -2.74535        7.72363        0.74058
H         -4.23695        6.92694        1.30141
H         -4.69437        4.43436        1.31826
H         -3.48164        3.14568        1.17084
H         -3.42300        4.25838        2.54531
H         -4.55825        5.70166       -0.79847
H         -3.07307        6.08789       -1.69919
H         -3.55029        4.40652       -1.48356
H          0.86893        8.98202        2.72630
H          0.58101        8.84934        0.97694
H         -0.73583        8.53358        2.10730
H          3.10462        5.88817        2.12921
H          2.92885        7.27351        1.05050
H          2.93590        7.52555        2.81099
H         -0.53028        6.47705        4.02258
H          0.91831        5.46526        4.13588
H          1.04483        7.22086        4.36017
H         -0.95040        4.11855        3.92839
H         -1.75827        2.72502        3.20936
H         -0.26975        2.49091        4.14459
H          1.92466        2.16978        3.14540
H          2.55830        2.96617        1.68653
H          2.19383        3.92771        3.12254
H         -1.15029        1.48432        1.00664
H          0.51147        1.43555        0.40788
H          0.15093        0.90088        2.06555
