52
CSD_code = EGIFOQ | q = -1 | S = 0 | Stoichiometry = C22H23OS4SiW(1-) | MND = 5
W          2.30818        1.85611       14.35378
S          1.07760        4.03720       14.62885
Si         3.11304        1.69201       17.40802
S          2.97478        2.93783       12.30073
S          0.70572        0.60584       13.49944
S          4.19065        0.69217       14.23175
O          2.03391        1.99539       16.26647
C          1.59441        3.97965       11.92947
C          0.77231        4.46234       12.95643
C          5.96951        2.34324       17.46947
H          6.05085        1.65102       18.29445
C          3.29779       -0.20220       17.45508
C          4.27195       -2.27125       18.22912
H          4.96960       -2.78929       18.87402
C          2.50261       -0.94023       16.57998
H          1.80740       -0.41264       15.92087
C          4.72648        2.57428       16.89286
C          2.43419        2.42694       19.05438
C         -0.28242        5.31196       12.63849
H         -0.90356        5.68039       13.44108
C          1.09924        1.76314       19.38792
H          1.23249        0.69429       19.54588
H          0.39850        1.90158       18.56792
H          0.66612        2.19588       20.29132
C          4.18159       -0.89117       18.27666
H          4.81283       -0.34135       18.95971
C          1.34226        4.34967       10.61548
H          1.98984        3.96574        9.84226
C          0.27954        5.18030       10.31127
H          0.08573        5.45036        9.28282
C          3.40899        2.20051       20.20385
H          3.02542        2.64320       21.12435
H          4.37308        2.65325       19.98355
H          3.55570        1.13670       20.37446
C          7.10759        2.97013       16.99138
H          8.06683        2.76752       17.44874
C          2.21378        3.92841       18.86775
H          1.56029        4.11061       18.01668
H          3.16038        4.43417       18.68383
H          1.75545        4.36613       19.75602
C          3.47756       -2.98808       17.35113
H          3.55425       -4.06602       17.30719
C          2.58956       -2.31890       16.52520
H          1.97115       -2.86894       15.83085
C          7.02320        3.84313       15.92125
H          7.91352        4.32322       15.53950
C          4.66217        3.46417       15.82134
H          3.68937        3.68265       15.36118
C         -0.53276        5.66251       11.32599
H         -1.36492        6.31287       11.09475
C          5.79292        4.09456       15.33583
H          5.71540        4.76970       14.49552
