98
CSD_code = EJOBAG | q = 0 | S = 0 | Stoichiometry = C34H53LaN6OSi3 | MND = 7
La         7.97238        7.08295       13.20837
Si         8.05655       10.23969       13.78460
Si         5.53605        5.80607       14.99010
Si         7.34063        6.36002       10.14214
O         10.66325        6.71091       13.76789
N          8.61199        8.89184       14.65560
N          7.01309        5.23662       14.35689
N          8.77642        6.70006       10.98116
N          5.16441        6.97360       13.67581
N          6.26759        7.48057       11.05339
N          6.55381        9.47738       13.15137
C          4.60623        6.34032       12.49159
H          3.51781        6.19831       12.59241
H          5.06487        5.35488       12.40396
C          4.86781        7.11477       11.18580
H          4.52963        6.48663       10.35298
H          4.24633        8.01384       11.16395
C          6.45865        8.88449       10.72676
H          5.89906        9.15811        9.81701
H          7.52101        9.02641       10.51938
C          6.04189        9.86660       11.84725
H          6.40280       10.86020       11.55435
H          4.95048        9.93236       11.88617
C          5.52671        9.38469       14.17953
H          4.95599       10.32443       14.25289
H          6.04077        9.23439       15.13033
C          4.51690        8.23262       13.99978
H          3.94176        8.16293       14.93072
H          3.80345        8.49383       13.21307
C          7.58482       11.88600       14.64897
H          6.80025       12.41144       14.11138
H          8.43390       12.55773       14.72128
H          7.22785       11.70231       15.65716
C          9.17389       10.65772       12.28594
H          8.71106       11.35275       11.59361
H          9.42700        9.75344       11.73714
H         10.10191       11.10829       12.62300
C          9.27164        8.78384       15.84400
C          9.36630        7.52064       16.46021
H          8.90532        6.66261       15.96701
C         10.01379        7.36158       17.66745
H         10.06055        6.38150       18.12279
C         10.60039        8.44604       18.30351
H         11.10959        8.31890       19.24684
C         10.52162        9.69624       17.70972
H         10.97643       10.54977       18.19340
C          9.87089        9.86725       16.50511
H          9.81613       10.84192       16.04452
C          5.67703        6.75584       16.64613
H          4.74987        7.24042       16.93406
H          6.45492        7.51185       16.60413
H          5.94289        6.06853       17.44235
C          4.06259        4.58590       15.15319
H          3.11078        5.07352       14.96272
H          4.01148        4.15324       16.14665
H          4.16144        3.76678       14.44831
C          7.61477        4.02519       14.53954
C          8.66999        3.65714       13.68279
H          8.96224        4.35210       12.89166
C          9.30780        2.43975       13.81032
H         10.11181        2.18677       13.13279
C          8.92250        1.54444       14.79595
H          9.42133        0.59261       14.89663
C          7.88506        1.88883       15.64924
H          7.57565        1.19867       16.42191
C          7.24051        3.10195       15.52810
H          6.43704        3.36670       16.19769
C          7.34854        6.82395        8.27997
H          6.36063        6.76353        7.83301
H          7.99994        6.15392        7.72936
H          7.72212        7.83122        8.12779
C          6.60635        4.58735       10.24094
H          5.56115        4.53148        9.95435
H          6.70219        4.17485       11.24227
H          7.15298        3.93330        9.56863
C         10.02191        6.20448       10.64346
C         10.25687        4.85298       10.35619
H          9.42230        4.16813       10.37459
C         11.52559        4.39647       10.06197
H         11.67992        3.34638        9.85460
C         12.60063        5.27040       10.02428
H         13.59181        4.90984        9.79236
C         12.38286        6.61641       10.27195
H         13.20930        7.31315       10.22004
C         11.11728        7.07738       10.57428
H         10.94575        8.13147       10.74927
C         11.40822        5.55525       14.14546
H         11.94029        5.16829       13.26403
H         10.71222        4.79936       14.51297
C         12.40302        6.02559       15.21737
H         12.00943        5.83579       16.21366
H         13.35752        5.51325       15.11768
C         12.52136        7.53696       14.96664
H         12.14628        8.09848       15.81969
H         13.54546        7.84582       14.76810
C         11.62622        7.76210       13.74231
H         12.21794        7.68270       12.82068
H         11.09289        8.71276       13.76590
