112
CSD_code = EJUBOB | q = 0 | S = 0 | Stoichiometry = C40H64LaN5Si2 | MND = 5
La         9.79574        4.07433        3.46546
Si         9.32170        7.00565        5.31887
N          9.16347        2.67697        5.33296
C         10.72567        5.97241        6.14056
H         10.86902        4.99974        5.65658
H         10.48557        5.78241        7.18172
H         11.67223        6.50635        6.11959
Si         7.50033        6.81595        2.95568
N         11.75429        2.88594        4.05773
C          8.07323        7.35656        6.72618
H          7.55581        6.45124        7.02429
H          7.32771        8.07981        6.41848
H          8.57434        7.75443        7.60352
N         11.66315        4.89011        2.21646
C         10.08548        8.71019        4.87907
H         10.78173        8.63856        4.04973
H         10.61537        9.14328        5.72184
H          9.30573        9.40657        4.59084
N          9.69365        3.30280        1.15787
C          6.00517        7.57166        3.88064
H          6.26233        8.54358        4.28700
H          5.69098        6.94419        4.70702
H          5.15334        7.70670        3.22138
C          6.77739        5.42103        1.84696
H          5.95410        4.90099        2.32747
H          7.53940        4.68956        1.57807
H          6.39265        5.84282        0.92354
C          8.09662        8.18079        1.74802
H          8.73764        8.89439        2.25252
H          7.25736        8.72918        1.33095
H          8.65493        7.75625        0.92094
N          8.71172        6.13531        3.96775
C          9.45955        1.38912        5.22281
C          8.66444        0.35936        5.99721
H          9.27453       -0.07538        6.78737
H          8.36061       -0.44648        5.33200
H          7.78222        0.80515        6.45041
C         10.48660        0.89307        4.41761
H         10.49810       -0.17993        4.29055
C         11.60383        1.58310        3.91005
C         12.66267        0.70935        3.27089
H         13.60698        0.77807        3.80751
H         12.82619        1.01706        2.24012
H         12.34316       -0.32805        3.26340
C         13.00348        3.51044        3.64687
H         13.44847        2.95706        2.80812
C         12.78729        4.96182        3.12846
H         12.55281        5.62830        3.97968
C         11.25938        5.82127        1.38577
C         11.81059        7.22871        1.34063
H         12.63119        7.30079        0.62697
H         12.16104        7.53726        2.32285
H         11.02895        7.91380        1.02327
C         10.31299        5.48637        0.39033
H         10.11212        6.23315       -0.36452
C          9.75923        4.22236        0.19638
C         14.01857        3.54484        4.79744
H         14.12961        2.54638        5.22490
H         13.64262        4.20033        5.58615
C         15.36144        4.05084        4.28054
H         16.07874        4.11379        5.10155
H         15.75514        3.34211        3.54780
C          9.14293        3.93364       -1.15554
H          9.80234        4.24692       -1.96199
H          8.21219        4.49291       -1.25023
H          8.92249        2.87372       -1.26118
C         15.20554        5.41983        3.62551
H         16.15991        5.73349        3.19658
H         14.92717        6.15221        4.38717
C         14.13504        5.40857        2.53440
H         14.06458        6.40577        2.10644
H         14.41890        4.72228        1.73303
C          8.50829        3.13276        6.49750
C          7.19371        3.61855        6.45743
C          6.43252        3.61463        5.16623
H          6.36224        2.60500        4.75853
H          6.94262        4.26194        4.44340
H          5.42476        3.99569        5.31705
C          6.61088        4.10565        7.61525
H          5.59458        4.47391        7.57811
C          7.29609        4.13083        8.82253
C          6.64857        4.69201       10.05274
H          5.61242        4.36707       10.12677
H          6.65466        5.78176       10.01250
H          7.17971        4.38126       10.94917
C          8.59691        3.65365        8.84712
H          9.14983        3.67118        9.77653
C          9.21329        3.15121        7.71140
C         10.62747        2.65287        7.78939
H         11.14113        2.78841        6.83787
H         10.64585        1.58942        8.03084
H         11.17099        3.18129        8.56999
C          9.72419        1.93617        0.86421
C         11.97524        2.28230       -0.22532
H         12.13181        3.07661        0.50636
H         11.75028        2.75096       -1.18301
H         12.89149        1.70605       -0.34330
C         10.85003        1.39209        0.21488
C         10.93235        0.02349        0.02699
H         11.80267       -0.38592       -0.46832
C          9.93698       -0.83937        0.46407
C         10.04936       -2.31659        0.23115
H         11.07587       -2.65189        0.36594
H          9.74959       -2.56140       -0.78862
H          9.40678       -2.86741        0.91387
C          8.83562       -0.29436        1.10585
H          8.04852       -0.94963        1.45371
C          8.71188        1.07040        1.30854
C          7.49604        1.62582        1.99191
H          6.82610        0.82074        2.28803
H          6.95426        2.29924        1.32605
H          7.78907        2.19039        2.88924
