65
CSD_code = EMOLIB | q = 0 | S = 0 | Stoichiometry = C22H40Si2Zr | MND = 12
Zr         3.06366        2.15929        2.34085
Si         0.23259        4.54865        3.87373
Si         1.28232       -1.17174        3.30363
C          2.05346        3.46952        0.81877
C          4.90395        3.83488        1.98370
C          5.31578        2.65898        1.30019
C          5.56509        1.65199        2.26581
C          5.32858        2.20172        3.55330
C          4.92830        3.55636        3.38168
C          1.48936        0.64769        3.71251
C          0.72819        1.73003        3.23021
C          1.19244        2.93912        3.81470
C          2.25981        2.57504        4.68710
C          2.45004        1.18730        4.60918
C          4.80286        5.21411        1.38535
C          5.51230        2.49267       -0.18136
C          6.13214        0.29364        1.95611
C          5.72247        1.54874        4.85319
C          4.88372        4.61791        4.45064
C         -0.60257        4.70846        5.59072
C         -1.14017        4.56818        2.54462
C          1.35753        6.08826        3.65773
C          3.03073       -1.95440        3.25745
C          0.24753       -2.05557        4.64878
C          0.40682       -1.35449        1.61607
H          3.03308        0.75832        1.25929
H          1.06833        3.03754        0.57693
H          2.62291        3.47446       -0.12445
H          1.88659        4.51589        1.10548
H         -0.13348        1.64311        2.57965
H          2.71401        3.23809        5.41227
H          3.09675        0.59240        5.24336
H          4.32701        5.19890        0.40607
H          4.23937        5.88230        2.03418
H          5.80333        5.63864        1.26402
H          6.52260        2.13761       -0.39104
H          4.80740        1.76119       -0.58975
H          5.37261        3.43872       -0.70052
H          5.63388       -0.14729        1.09046
H          7.19782        0.37355        1.72370
H          6.02640       -0.38403        2.80304
H          5.55269        0.47160        4.82574
H          5.17319        1.96303        5.69783
H          6.78788        1.70852        5.04170
H          3.97104        5.21261        4.40428
H          4.96348        4.18126        5.44399
H          5.72909        5.29890        4.32523
H          0.13074        4.70071        6.39113
H         -1.28957        3.88820        5.77266
H         -1.16475        5.63367        5.66971
H         -1.85794        3.77206        2.71421
H         -0.73877        4.44349        1.54453
H         -1.68516        5.50671        2.56639
H          1.87023        6.33364        4.58333
H          2.10827        5.93861        2.88594
H          0.76960        6.95769        3.37996
H          3.00958       -2.96604        2.86389
H          3.68379       -1.36107        2.61969
H          3.47532       -2.00227        4.24814
H         -0.74748       -1.62976        4.72415
H          0.71142       -1.97663        5.62645
H          0.13828       -3.11046        4.42002
H         -0.63522       -1.05419        1.67455
H          0.43134       -2.38053        1.26241
H          0.89433       -0.73043        0.87108
