71
CSD_code = ENASES | q = 0 | S = 0 | Stoichiometry = C26H38BFeNO2Si2 | MND = 8
Fe        -2.61424        1.04503       20.24659
C         -2.08769       -0.46585       19.57442
O         -1.67832       -1.48541       19.22940
C         -1.23172        0.86876       21.29050
O         -0.27462        0.67946       21.90148
C         -4.12148        1.92991       18.82441
C         -2.80378        2.33739       18.43531
C         -2.25176        3.10488       19.49292
C         -3.23680        3.19144       20.53494
C         -4.40071        2.50257       20.10058
C         -5.11780        1.29903       17.90114
H         -5.93574        0.84324       18.45138
H         -4.65345        0.52754       17.29155
H         -5.53312        2.05625       17.23270
C         -2.20435        2.14324       17.07730
H         -2.51621        2.95380       16.41558
H         -2.53021        1.20391       16.63789
H         -1.11825        2.14196       17.12457
C         -0.97486        3.88607       19.44787
H         -0.23641        3.39408       18.81982
H         -0.55430        4.00362       20.44346
H         -1.16273        4.88062       19.03832
C         -3.15511        4.10957       21.71528
H         -3.38100        5.13141       21.40289
H         -2.15989        4.10274       22.15321
H         -3.86908        3.82151       22.48118
C         -5.71547        2.49345       20.81311
H         -6.21483        3.45515       20.67890
H         -5.58037        2.32099       21.87914
H         -6.36215        1.71309       20.42265
C         -3.68595       -0.13901       21.36983
C         -4.83508       -0.84495       21.19676
C         -5.75603       -1.28612       20.18459
C         -5.30598       -1.97090       19.05404
H         -4.24918       -2.16124       18.94377
C         -6.20065       -2.40621       18.09594
H         -5.84026       -2.93877       17.22716
C         -7.55634       -2.15697       18.23908
H         -8.25312       -2.49210       17.48487
C         -8.01501       -1.47784       19.35677
H         -9.07199       -1.28299       19.47348
C         -7.12686       -1.05495       20.32662
H         -7.48313       -0.52554       21.20033
B         -4.28350       -0.74128       22.59638
N         -4.30465       -1.03490       23.97778
Si        -3.09270       -0.19482       24.95656
C         -1.43658       -1.12877       24.83562
H         -1.52572       -2.15366       25.18182
H         -0.66266       -0.64725       25.42504
H         -1.09556       -1.15834       23.80548
C         -2.91716        1.57726       24.28243
H         -2.72226        1.55636       23.21434
H         -2.09920        2.10394       24.76299
H         -3.82153        2.15535       24.44661
C         -3.65580       -0.05156       26.77200
H         -4.58434        0.50190       26.86119
H         -2.90409        0.47886       27.34780
H         -3.80032       -1.01786       27.24007
Si        -5.37401       -2.29112       24.60085
C         -6.73439       -1.51125       25.69255
H         -6.35710       -1.22316       26.66738
H         -7.54630       -2.21396       25.85352
H         -7.15479       -0.62484       25.22727
C         -4.35623       -3.56557       25.59012
H         -3.63359       -4.06564       24.95258
H         -5.00279       -4.32844       26.01269
H         -3.81001       -3.11020       26.40842
C         -6.19925       -3.21148       23.15402
H         -6.90522       -2.58222       22.62452
H         -6.73956       -4.08393       23.50847
H         -5.46344       -3.54885       22.43180
