82
CSD_code = ENASUI | q = 0 | S = 0 | Stoichiometry = C28H47BFeNOPSi2 | MND = 8
Fe        -1.61035        3.41273       11.67856
C         -0.09611        2.97688       12.38673
O          0.94070        2.76573       12.85291
C         -2.61634        4.02438       13.50262
C         -3.60325        3.51965       12.61303
C         -3.57358        4.30985       11.43101
C         -2.62288        5.36434       11.63051
C         -2.01329        5.17091       12.89303
C         -2.43522        3.63606       14.93658
H         -2.88527        4.39421       15.58119
H         -1.38133        3.55922       15.19338
H         -2.91008        2.68221       15.14188
C         -4.58048        2.43441       12.93829
H         -4.06765        1.50749       13.19127
H         -5.23085        2.24593       12.08994
H         -5.19831        2.73345       13.78685
C         -4.57167        4.24381       10.31644
H         -4.71508        3.22011        9.98007
H         -4.24406        4.83512        9.46567
H         -5.53641        4.63370       10.64790
C         -2.48727        6.58975       10.78340
H         -3.27598        7.29859       11.04512
H         -2.58325        6.36518        9.72382
H         -1.53093        7.07980       10.95079
C         -1.04918        6.09219       13.57221
H         -0.42276        6.60833       12.84857
H         -0.40219        5.53604       14.24560
H         -1.58646        6.84203       14.15639
P         -0.59679        3.56774        9.79297
C          0.66028        4.91202        9.68305
H          1.17631        4.89262        8.72392
H          1.37908        4.77467       10.48809
H          0.17685        5.87686        9.81187
C         -1.51459        3.87017        8.22446
H         -0.85715        3.75442        7.36350
H         -1.91727        4.88025        8.23012
H         -2.34028        3.16665        8.15280
C          0.46545        2.15228        9.29777
H         -0.14071        1.25156        9.23975
H          1.21763        2.00304       10.06980
H          0.95367        2.34158        8.34176
C         -1.99012        1.55718       11.24020
C         -2.76314        0.83326       10.38265
C         -3.62155        0.83967        9.23535
C         -3.09603        0.81295        7.93821
H         -2.02312        0.82276        7.80442
C         -3.92846        0.75574        6.83764
H         -3.50082        0.74015        5.84462
C         -5.30400        0.71680        6.99849
H         -5.95288        0.67690        6.13619
C         -5.83895        0.71428        8.27728
H         -6.91051        0.66675        8.41299
C         -5.01167        0.76628        9.38097
H         -5.43395        0.74365       10.37621
B         -2.02712        0.08773       11.46700
N         -1.68199       -1.15937       12.05177
Si        -0.67446       -1.09796       13.49999
C         -1.13472        0.47413       14.46392
H         -1.23341        1.31481       13.78463
H         -0.37741        0.72346       15.19991
H         -2.07664        0.35257       14.99032
C          1.15655       -1.04677       12.96488
H          1.39063       -1.83181       12.25194
H          1.82396       -1.15967       13.81345
H          1.38141       -0.09543       12.49320
C         -1.00202       -2.57973       14.65620
H         -2.04262       -2.88484       14.63459
H         -0.75967       -2.31071       15.67963
H         -0.39669       -3.44034       14.39857
Si        -2.23256       -2.59970       11.19921
C         -1.32540       -4.17350       11.76787
H         -0.26301       -4.00221       11.89947
H         -1.44260       -4.95485       11.02357
H         -1.71983       -4.55597       12.70123
C         -1.87898       -2.40016        9.33397
H         -2.50652       -1.63310        8.89424
H         -2.06729       -3.32391        8.79530
H         -0.84492       -2.11991        9.15620
C         -4.11181       -2.78437       11.48200
H         -4.35189       -2.86772       12.53786
H         -4.50623       -3.66428       10.98338
H         -4.64053       -1.92031       11.09192
