88
CSD_code = EPAJAI | q = 0 | S = 0 | Stoichiometry = C37H45FeIP2Si2 | MND = 8
Fe        22.39017        9.15695       11.13226
C         23.52159        9.90415        8.10662
H         23.94179       10.78552        7.61227
H         23.98507        9.02136        7.66004
C         21.99951        9.84181        7.94783
H         21.69020        8.85750        7.58067
H         21.61986       10.58489        7.24012
P         23.98019        9.96961        9.91705
C         24.39224       11.75016       10.04789
C         23.68292       12.58420       10.89810
H         22.88638       12.17226       11.49626
C         23.98149       13.93383       10.97128
H         23.42085       14.57183       11.63890
C         24.98853       14.46223       10.18417
H         25.22260       15.51529       10.23724
C         25.69921       13.63691        9.32533
H         26.48630       14.04717        8.70918
C         25.40566       12.28922        9.25736
H         25.97109       11.64417        8.59670
C         25.66981        9.29033        9.94677
C         26.58207        9.85949       10.83347
H         26.27950       10.71070       11.42955
C         27.86544        9.36004       10.93856
H         28.56687        9.81562       11.62258
C         28.25149        8.27508       10.16775
H         29.25534        7.88541       10.24705
C         27.34251        7.68529        9.30573
H         27.63129        6.82734        8.71722
C         26.05467        8.18139        9.19988
H         25.35268        7.68352        8.54861
P         21.16382       10.04817        9.59250
C         19.49370        9.46903        9.14998
C         19.04598        8.25812        9.65825
H         19.67948        7.70619       10.33364
C         17.80157        7.76965        9.30363
H         17.46222        6.82522        9.70086
C         16.99655        8.49545        8.44260
H         16.02280        8.11979        8.16477
C         17.43760        9.70851        7.93556
H         16.80771       10.27485        7.26474
C         18.68245       10.19691        8.28384
H         19.02468       11.14566        7.89241
C         20.85486       11.84498        9.65754
C         19.92157       12.26725       10.60070
H         19.41158       11.51976       11.19048
C         19.64691       13.60973       10.77002
H         18.91729       13.92485       11.50233
C         20.30892       14.55163        9.99776
H         20.09752       15.60299       10.12628
C         21.24133       14.14123        9.06106
H         21.76202       14.87237        8.45955
C         21.51985       12.79594        8.89294
H         22.26204       12.50082        8.16604
C         23.28262        8.60885       12.99320
C         21.97522        8.05791       12.91845
H         21.75534        7.00804       13.01860
C         20.99924        9.07083       12.77664
C         21.73315       10.29918       12.74193
H         21.28437       11.28017       12.74743
C         23.10839       10.01536       12.89082
H         23.90086       10.73868       12.99647
Si        24.76758        7.65500       13.64190
C         26.05342        8.90358       14.29078
H         26.47980        9.49666       13.49005
H         26.86977        8.38061       14.77828
H         25.61961        9.58366       15.01784
C         25.54562        6.45420       12.39300
H         24.81376        5.74908       12.01211
H         26.34407        5.88371       12.85813
H         25.96655        6.97402       11.54001
C         24.09626        6.65474       15.12646
H         23.55329        7.28390       15.82610
H         24.90851        6.18317       15.67067
H         23.42337        5.86794       14.80051
Si        19.21469        8.76114       13.28250
C         19.21332        9.13170       15.16037
H         19.94409        8.52219       15.68390
H         18.23999        8.92540       15.59514
H         19.45000       10.17200       15.36499
C         18.79978        6.91829       13.01360
H         19.33085        6.48351       12.17337
H         17.73826        6.78051       12.83361
H         19.05876        6.33620       13.89304
C         17.86632        9.86130       12.50398
H         17.97350       10.89892       12.80633
H         16.89176        9.52980       12.85005
H         17.85432        9.81797       11.42007
I         22.56967        6.96603        9.87771
