88
CSD_code = EPAMOZ | q = 0 | S = 0 | Stoichiometry = C37H45ClFeP2Si2 | MND = 8
Fe         0.04528        2.10632        5.63436
Cl         1.72418        0.90671        6.31463
C          2.57711        4.04012        6.43576
H          2.75616        5.11516        6.52927
H          3.21498        3.52714        7.15859
C          2.87620        3.54092        5.02002
H          3.46845        2.62161        5.06534
H          3.42998        4.26854        4.41920
P          0.79409        3.69258        6.89146
C          0.91067        3.55132        8.70394
C          0.05940        4.25906        9.54859
H         -0.66578        4.94507        9.13159
C          0.14915        4.10287       10.92008
H         -0.50881        4.66437       11.56786
C          1.07491        3.22693       11.46182
H          1.14510        3.11015       12.53339
C          1.89933        2.49202       10.62523
H          2.60818        1.79207       11.04276
C          1.81340        2.64469        9.25392
H          2.42751        2.04098        8.60237
C          0.10201        5.37755        6.70710
C         -0.93614        5.60391        5.81552
H         -1.33348        4.77299        5.25561
C         -1.44263        6.87860        5.63238
H         -2.25097        7.04122        4.93455
C         -0.90611        7.94246        6.33551
H         -1.29651        8.93947        6.19332
C          0.13618        7.72739        7.22441
H          0.55697        8.55706        7.77426
C          0.63787        6.45367        7.41113
H          1.44348        6.28723        8.11451
P          1.31437        3.03781        4.15381
C          2.05248        2.14926        2.74289
C          2.30499        0.79370        2.92537
H          2.05173        0.34246        3.87297
C          2.88100        0.05060        1.91259
H          3.07573       -1.00126        2.05899
C          3.20514        0.65650        0.70938
H          3.64826        0.07735       -0.08761
C          2.96425        2.00856        0.52695
H          3.22362        2.48241       -0.40898
C          2.39114        2.75817        1.53909
H          2.20280        3.81242        1.39144
C          0.75159        4.57950        3.35686
C         -0.27351        4.45126        2.42224
H         -0.62663        3.46008        2.17826
C         -0.81587        5.56413        1.81076
H         -1.60735        5.45115        1.08361
C         -0.34327        6.82723        2.13208
H         -0.76577        7.70074        1.65767
C          0.67176        6.96517        3.06241
H          1.04108        7.94796        3.31757
C          1.21462        5.84992        3.67665
H          1.99676        5.98251        4.40842
C         -1.56719        1.20809        6.69957
C         -1.18722        0.35324        5.63597
H         -0.85816       -0.66454        5.76353
C         -1.32013        1.00665        4.38992
C         -1.80459        2.32166        4.69511
H         -2.11667        3.04733        3.96258
C         -1.96505        2.43346        6.08743
H         -2.38976        3.26936        6.61859
Si        -1.86051        0.61317        8.45574
C         -3.11764       -0.82295        8.30711
H         -4.02390       -0.51348        7.79486
H         -3.40322       -1.18806        9.28888
H         -2.69831       -1.65847        7.75527
C         -2.66724        2.01255        9.46671
H         -2.02799        2.88738        9.51072
H         -2.84971        1.68882       10.48632
H         -3.62034        2.31349        9.04278
C         -0.26058       -0.02401        9.26720
H          0.57265        0.03651        8.57484
H         -0.35864       -1.06108        9.57288
H          0.00113        0.55756       10.14515
Si        -1.41086        0.03309        2.78612
C         -0.31541       -1.52068        2.93634
H          0.48318       -1.37824        3.65585
H          0.14229       -1.77583        1.98597
H         -0.89817       -2.37742        3.26090
C         -0.99076        0.98235        1.18697
H         -1.68067        1.80277        1.01298
H         -1.07149        0.31328        0.33545
H          0.01895        1.37846        1.19225
C         -3.24842       -0.49326        2.65664
H         -3.56428       -1.04422        3.53762
H         -3.41124       -1.13048        1.79264
H         -3.90474        0.36661        2.55810
