82
CSD_code = EREGAK | q = 0 | S = 0 | Stoichiometry = C33H38Cl3N5OSiZr | MND = 7
C          8.72437       17.50017       11.11409
C          7.72572       18.59860       11.08769
C          8.18064       19.91058       10.97604
H          9.24091       20.10339       10.86382
C          7.27425       20.95513       10.97512
H          7.62959       21.96941       10.87706
Zr        11.79931       17.67784       11.20503
Cl        11.03231       18.56740        9.13102
Cl        11.51550       19.78114       12.39439
Cl        12.61194       16.59665       13.16156
O         13.66890       18.79939       10.85567
N          9.70574       17.53010       11.97343
H          9.58832       18.30372       12.63746
N          8.55963       16.44702       10.30593
N          9.36664       14.05865        9.06848
N         11.16073       15.75311       10.52042
N         13.23306       16.35354       10.05218
Si         9.63267       15.00524       10.47841
C          5.91874       20.70134       11.10471
H          5.21349       21.51908       11.10873
C          5.46637       19.39817       11.23232
H          4.41060       19.19944       11.34136
C          6.36377       18.34653       11.21900
H          6.01330       17.33057       11.32369
C          7.63172       16.51057        9.24349
C          7.70310       17.53318        8.30473
H          8.48010       18.27819        8.38897
C          6.80022       17.56572        7.25776
H          6.85851       18.36127        6.53049
C          5.83404       16.58101        7.13392
H          5.13208       16.60970        6.31397
C          5.77540       15.55407        8.06122
H          5.02717       14.78068        7.96610
C          6.66999       15.51680        9.11519
H          6.62912       14.72363        9.84553
C          9.11869       14.15269       12.10185
H          8.04057       14.12557       12.22237
H          9.53350       14.70575       12.94154
H          9.48616       13.13426       12.16334
C          9.78364       14.52607        7.76597
H         10.54600       13.86102        7.34639
H         10.19733       15.52866        7.84529
H          8.92846       14.55368        7.08314
C          8.85568       12.71411        9.04555
H          8.00904       12.64311        8.35546
H          8.52630       12.42743       10.03813
H          9.62862       12.01100        8.71479
C         12.35438       15.37843       10.09448
C         12.63522       13.99603        9.64939
C         12.28169       12.92314       10.45912
H         11.84673       13.12003       11.42689
C         12.51435       11.62841       10.03368
H         12.24417       10.79677       10.66762
C         13.09584       11.39691        8.79748
H         13.27331       10.38491        8.46458
C         13.45409       12.46419        7.99064
H         13.90969       12.28541        7.02792
C         13.23059       13.76184        8.41442
H         13.50318       14.59753        7.78666
C         14.59808       16.15076        9.86273
C         15.28022       16.95251        8.94465
H         14.71295       17.65602        8.34965
C         16.64741       16.82695        8.79338
H         17.16687       17.44707        8.07658
C         17.35365       15.90861        9.55430
H         18.42268       15.81518        9.43616
C         16.68241       15.11302       10.46919
H         17.23006       14.39978       11.06749
C         15.31485       15.22725       10.62764
H         14.78823       14.62971       11.35851
C         14.61023       18.82391       11.94039
H         14.93552       17.79502       12.12896
H         14.12540       19.23319       12.84126
C         15.71801       19.74659       11.45177
H         16.34318       19.22412       10.72578
H         16.33915       20.11842       12.26217
C         14.89892       20.84246       10.77363
H         15.46308       21.39663       10.02742
H         14.51849       21.53869       11.52085
C         13.74002       20.05830       10.15212
H         12.78323       20.58687       10.25138
H         13.91553       19.83012        9.09363
