85
CSD_code = EREHEO | q = 0 | S = 0 | Stoichiometry = C43H38FeNPSi | MND = 8
Fe         6.04237       -4.24973       12.32910
P          6.39067       -2.61830       13.67634
Si         6.09360       -1.11431        8.98059
N          6.02489       -2.50463        9.98540
C          5.98106       -3.17236       10.96993
C          4.06044       -4.07156       12.44466
C          5.79825       -6.44730       12.58299
C          6.38454       -6.14854       11.33248
C          7.62920       -5.51294       11.57536
C          7.77785       -5.37157       12.96589
C          6.63428       -5.94783       13.59151
C          6.66353       -3.18958       15.38777
C          5.55015       -3.69498       16.05724
C          5.68237       -4.25628       17.31179
C          6.93447       -4.33749       17.90358
C          8.04786       -3.86009       17.23349
C          7.91713       -3.29210       15.97735
C          7.90798       -1.64118       13.34965
C          8.69403       -1.97511       12.25455
C          9.85864       -1.27731       11.99090
C         10.24429       -0.23852       12.82052
C          9.45782        0.10831       13.90778
C          8.29197       -0.58569       14.17173
C          5.24505       -1.21276       13.94106
C          4.96758       -0.64619       15.18044
C          4.13243        0.45467       15.26848
C          3.57181        1.00142       14.12659
C          3.84357        0.44185       12.88811
C          4.67420       -0.65934       12.79844
C          7.46228        0.05922        9.56370
C          7.28986        0.84219       10.70177
C          8.26873        1.72686       11.11349
C          9.44527        1.84386       10.39287
C          9.63848        1.06465        9.26522
C          8.65449        0.18206        8.85755
C          6.44481       -1.74464        7.23667
C          6.75732       -3.07917        6.99982
C          7.03320       -3.53054        5.72179
C          7.00048       -2.64974        4.65392
C          6.68871       -1.31790        4.87192
C          6.41413       -0.87338        6.15215
C          4.42199       -0.23760        9.12466
C          4.30488        1.12874        8.88888
C          3.08562        1.77118        9.00833
C          1.95756        1.05375        9.37036
C          2.05751       -0.30652        9.61188
C          3.27877       -0.94366        9.48768
H          3.62355       -3.07634       12.45148
H          3.62418       -4.61633       11.60895
H          3.75512       -4.56828       13.36588
H          4.88532       -6.99900       12.73294
H          6.02449       -6.47916       10.37220
H          8.36271       -5.26319       10.82666
H          8.65662       -5.01530       13.48013
H          6.51140       -6.09555       14.65175
H          4.58432       -3.63992       15.57260
H          4.81427       -4.63869       17.82928
H          7.04156       -4.77991       18.88312
H          9.02475       -3.93433       17.68953
H          8.79001       -2.92550       15.45491
H          8.37320       -2.78578       11.61594
H         10.46463       -1.54044       11.13662
H         11.15586        0.30443       12.61931
H          9.75667        0.92263       14.55231
H          7.67785       -0.31474       15.01970
H          5.39565       -1.06540       16.08050
H          3.91988        0.88822       16.23538
H          2.92135        1.86040       14.20186
H          3.40624        0.85946       11.99285
H          4.88327       -1.11448       11.84205
H          6.37439        0.76215       11.27000
H          8.11188        2.32895       11.99703
H         10.20800        2.54143       10.70806
H         10.55559        1.15008        8.69925
H          8.80746       -0.41783        7.97097
H          6.78091       -3.76694        7.83263
H          7.27435       -4.57104        5.55590
H          7.21567       -2.99945        3.65436
H          6.66013       -0.62688        4.04118
H          6.17049        0.16732        6.31516
H          5.18312        1.69850        8.61723
H          3.01431        2.83387        8.82307
H          1.00494        1.55461        9.46833
H          1.18196       -0.86989        9.90086
H          3.35458       -2.00281        9.68585
