57
CSD_code = EROLII | q = 0 | S = 0 | Stoichiometry = C19H33N3SiTi | MND = 8
Ti         1.37959        1.82119        2.99373
N          1.64516        3.33885        1.81848
N          2.67538        0.56984        2.55420
N          1.99704        2.46304        4.59760
Si         0.03573        3.77822        1.36621
C         -0.72489        2.33723        2.31773
C         -0.47146        1.01380        1.87858
H         -0.44400        0.71706        0.83318
C         -0.40581        0.13309        2.97054
H         -0.36392       -0.94970        2.91856
C         -0.70367        0.88545        4.14086
C         -0.87183        2.26157        3.73734
C         -1.26665        3.21044        4.69484
H         -1.42686        4.23999        4.40251
C         -1.51237        2.80426        5.98539
H         -1.84115        3.52382        6.72297
C         -1.36792        1.46139        6.36850
H         -1.59238        1.17996        7.38808
C         -0.96244        0.50630        5.46749
H         -0.87764       -0.53253        5.76427
C         -0.56334        5.51307        1.93392
H         -0.15822        5.78406        2.90425
H         -1.64578        5.54635        2.00318
H         -0.26091        6.27690        1.22524
C         -0.43766        3.64572       -0.49564
H          0.02243        4.43873       -1.07628
H         -1.51147        3.73161       -0.62759
H         -0.12824        2.69911       -0.92944
C          2.87628        3.81958        1.22211
C          2.74547        5.27765        0.75646
H          2.02826        5.35496       -0.05504
H          3.70722        5.64763        0.40825
H          2.40654        5.90111        1.57960
C          3.23348        2.93886        0.00994
H          3.41393        1.92171        0.35132
H          4.12508        3.31202       -0.48972
H          2.40924        2.93642       -0.69937
C          4.03009        3.73959        2.23772
H          3.92934        4.51957        2.98908
H          4.98449        3.87026        1.73076
H          4.00352        2.76585        2.72948
C          2.47924       -0.33900        1.44672
H          3.42368       -0.49932        0.89819
H          1.74457        0.05782        0.74128
H          2.14201       -1.33397        1.79357
C          3.81769        0.13891        3.32795
H          3.64135       -0.85317        3.78319
H          4.04109        0.85400        4.12075
H          4.71152        0.04342        2.68724
C          1.97926        3.85509        4.97189
H          1.16151        4.06167        5.68458
H          1.83186        4.46790        4.07983
H          2.92385        4.14619        5.46221
C          2.11210        1.62297        5.76643
H          3.09025        1.76046        6.26052
H          2.00583        0.56835        5.49031
H          1.33713        1.87034        6.51054
