113
CSD_code = ESIHEU | q = 0 | S = 0 | Stoichiometry = C38H65N4OSi4Y | MND = 5
Y          6.82644        8.50563        4.47931
Si         7.01724        5.16573        4.06443
Si         8.57161        9.54244        7.09362
Si         6.20501        7.86642        7.87142
Si         4.73893        6.44863        2.56296
O          8.83966        8.55563        3.44309
N          7.35448       10.03403        2.74890
N          7.06934        8.77855        6.68416
C          8.49799        9.40381        2.55966
N          4.65385       10.44226        4.49165
C          6.77933       10.92613        1.83783
C          6.12280       12.34197        3.80406
C          7.02939       13.80889        5.50547
H          7.62832       14.66884        5.76566
C         11.03274        9.83663       -0.86537
C          6.89531       13.45278        4.17023
C          3.88313        9.93425        5.63297
H          4.54044        9.58960        6.42722
H          3.28937        9.08585        5.29384
H          3.19413       10.69784        6.02128
C          5.46886       11.58723        4.80395
C         10.07165       10.78972        1.14377
C          6.06861       12.02973        2.34804
C         10.07639        8.35134        7.16383
H          9.90087        7.50943        7.82469
H         10.96250        8.86820        7.52097
H         10.30160        7.95835        6.17628
C          6.40872       13.06594        6.48364
H          6.51349       13.33333        7.52388
C          8.52250       10.45728        8.77143
H          7.66468       11.11546        8.84209
H          9.41475       11.05780        8.91360
H          8.46751        9.75227        9.59238
N          6.11174        6.56699        3.59698
C          6.79658       10.70484        0.46037
H          7.31135        9.84424        0.06606
C          9.55507        8.50747        0.51610
C         10.88149       10.89068        0.01720
H         11.40265       11.82010       -0.16502
C          9.39504        9.59835        1.38247
C          5.63542       11.97522        6.13554
H          5.17404       11.42899        6.93717
C         10.36383        8.64731       -0.59757
H         10.48100        7.81230       -1.27406
C         11.90512        9.95217       -2.07839
H         12.75676        9.27768       -1.99475
H         12.27785       10.96641       -2.19539
H         11.35062        9.67696       -2.97420
C          5.38296       12.87822        1.47321
C          7.74618        4.12583        2.62491
H          7.06635        3.33196        2.33724
H          8.68269        3.66150        2.91869
H          7.93832        4.72743        1.74487
C          6.13857       11.56417       -0.39649
H          6.16606       11.38312       -1.46055
C          5.36883        8.95376        9.21840
H          6.09140        9.27092        9.96063
H          4.59484        8.39500        9.73552
H          4.90858        9.85024        8.81557
C          7.60208       14.31814        3.16612
H          7.13078       15.30049        3.13206
H          7.58222       13.89367        2.16855
H          8.63774       14.45994        3.46992
C          9.96865       11.96549        2.06615
H          9.52718       12.80857        1.53655
H         10.96153       12.26534        2.39991
H          9.36260       11.73874        2.93790
C          3.68579       10.68216        3.41530
H          2.96444       11.45657        3.70845
H          3.14484        9.75892        3.21376
H          4.17550       10.99191        2.49990
C          3.08453        6.44932        3.54565
H          3.03891        5.60109        4.22044
H          2.23269        6.38142        2.87604
H          2.95862        7.34547        4.14581
C          7.22691        6.57538        8.84885
H          7.66519        5.82590        8.19760
H          6.60779        6.05720        9.57498
H          8.03468        7.05473        9.39169
C          8.49031        5.78803        5.11389
H          9.22681        6.28835        4.48913
H          8.99365        4.96552        5.61454
H          8.15774        6.48799        5.88242
C          8.85879        7.21039        0.79429
H          9.33034        6.72386        1.64776
H          8.92100        6.54817       -0.06700
H          7.81036        7.36445        1.05537
C          5.42915       12.63855        0.10573
H          4.89704       13.29874       -0.56342
C          9.01152       10.83904        5.75035
H          9.84484       10.48760        5.14899
H          9.29927       11.78887        6.18973
H          8.17034       11.03069        5.08579
C          4.78887        6.91529        6.99103
H          3.81922        7.37040        7.16589
H          4.72758        5.90101        7.36994
H          4.95129        6.85262        5.91304
C          4.54930       14.02228        1.97549
H          4.92937       14.96732        1.59029
H          4.54189       14.06583        3.06055
H          3.52430       13.91172        1.62252
C          4.72765        7.96593        1.38849
H          5.18882        8.82871        1.86437
H          3.72046        8.24413        1.09544
H          5.27900        7.75951        0.47667
C          6.00974        3.91942        5.11878
H          5.87146        4.26254        6.13794
H          6.50886        2.95672        5.16103
H          5.02718        3.76076        4.68754
C          4.63881        4.90459        1.44450
H          5.49594        4.83071        0.78540
H          3.74771        4.93091        0.82507
H          4.60184        3.99821        2.03744
