115
CSD_code = EYEWUA | q = 0 | S = 0 | Stoichiometry = C36H69LaN2OP2Si4 | MND = 6
La         3.47926        6.02525        6.80190
P          1.23320        4.57701        8.01260
C          1.20313        2.71071        7.79359
H          2.19644        2.30073        7.98680
Si        -0.04309        2.08236        9.11777
C         -1.81733        2.35755        8.47057
H         -1.95362        3.38001        8.13467
H         -2.54224        2.16880        9.25569
H         -2.05464        1.70031        7.64171
C          0.25591        0.22111        9.44515
H         -0.44652       -0.15002       10.18417
H          1.25533        0.04175        9.82967
H          0.13591       -0.37800        8.55016
C          0.01719        2.93581       10.82361
H         -0.10306        4.01066       10.73811
H          0.95114        2.75462       11.34383
H         -0.78726        2.56087       11.45002
Si         0.77720        2.24725        5.98836
C         -0.61630        3.34297        5.27365
H         -0.52608        3.47366        4.19898
H         -0.60917        4.32432        5.73833
H         -1.58943        2.90397        5.46443
C          2.36481        2.42732        4.93185
H          2.89298        3.35367        5.15351
H          2.14653        2.40884        3.86809
H          3.04436        1.60406        5.13320
C          0.25406        0.42426        5.77889
H          0.12129        0.18927        4.72752
H         -0.68177        0.21126        6.28214
H          1.00330       -0.25488        6.17175
C          2.21830        4.77282        9.53450
C          3.05522        3.78445       10.07113
H          3.16493        2.83516        9.56751
C          3.75593        3.98327       11.24210
H          4.39690        3.19899       11.62129
C          3.63660        5.17484       11.93871
H          4.17374        5.32958       12.86239
C          2.81360        6.16630       11.43122
H          2.70192        7.09530       11.97560
C          2.11898        5.99016       10.24657
C          1.24052        7.08905        9.72523
H          0.34534        6.63369        9.28386
H          0.92630        7.74960       10.55115
N          1.89651        7.88196        8.67013
C          2.93101        8.72798        9.25856
H          2.50601        9.42957        9.99304
H          3.41454        9.30431        8.47074
H          3.67660        8.11072        9.75651
C          0.90135        8.73577        8.03325
H          0.43600        9.42500        8.75415
H          0.11921        8.11760        7.59471
H          1.37461        9.32865        7.25153
P          5.04575        7.96259        5.40189
C          6.34583        8.44617        6.65207
H          5.91117        9.17861        7.33294
Si         7.66935        9.31320        5.57328
C          8.22116        8.18586        4.13119
H          8.80209        7.33812        4.47534
H          8.83581        8.74000        3.42856
H          7.36209        7.80457        3.58724
C          9.22982        9.82723        6.55067
H          9.77264        8.96726        6.92702
H          8.98542       10.46113        7.39679
H          9.90560       10.38543        5.91077
C          6.95733       10.90174        4.78488
H          6.01890       10.70352        4.27666
H          7.64925       11.31186        4.05573
H          6.77205       11.67243        5.52618
Si         6.88314        6.98923        7.81095
C          5.43509        5.92283        8.37325
H          5.08121        6.24871        9.35706
H          5.74550        4.87868        8.48782
C          8.21272        5.92178        6.93757
H          8.47113        5.06226        7.54804
H          9.12283        6.48491        6.76446
H          7.85528        5.56224        5.98032
C          7.73921        7.83359        9.30626
H          8.13694        7.08838        9.98689
H          7.03081        8.43698        9.86521
H          8.55664        8.47881        9.00793
C          3.82111        9.28567        5.44126
C          3.92402       10.45972        6.20363
H          4.77332       10.60735        6.85301
C          2.97739       11.46005        6.13503
H          3.09095       12.34489        6.74614
C          1.89451       11.34539        5.27847
H          1.15609       12.12994        5.21286
C          1.78705       10.21058        4.48870
H          0.96197       10.12829        3.79262
C          2.71718        9.18898        4.55893
C          2.56633        7.99416        3.66005
H          3.56049        7.69354        3.30701
H          1.95685        8.27108        2.78259
N          1.95735        6.82796        4.33016
C          1.95826        5.70703        3.39304
H          1.42832        5.96295        2.46206
H          1.46316        4.85118        3.84925
H          2.98432        5.43768        3.14145
C          0.57064        7.13824        4.67709
H         -0.04166        7.29495        3.77598
H          0.54004        8.04524        5.27646
H          0.14447        6.31593        5.25253
O          5.22769        4.17229        5.35950
C          5.83068        4.45956        4.09062
H          6.15006        5.50635        4.08093
H          5.06986        4.31046        3.31362
C          6.98799        3.47824        3.90762
H          7.91500        3.90338        4.29232
H          7.13238        3.20622        2.86486
C          6.54728        2.30534        4.77953
H          5.81834        1.69064        4.24993
H          7.37384        1.67933        5.10551
C          5.88122        3.03920        5.93729
H          5.12745        2.44508        6.45813
H          6.63087        3.38386        6.65974
