138
CSD_code = EYISUC | q = 0 | S = 0 | Stoichiometry = C63H68FeN2O2Si2 | MND = 3
Fe        16.05584        3.34988        5.58330
Si        18.47246        4.84151        7.08763
O         17.61627        3.65515        6.45714
C         19.48763        5.72937        5.74151
N         17.12633        0.08595        5.62658
C         16.05403        0.87512        5.58413
C         19.23073        0.50820        6.76266
C         18.46725        0.54363        5.58972
C         19.74815        7.09495        5.77139
H         19.34206        7.69461        6.57340
C         20.51077        7.69945        4.78671
H         20.70049        8.76313        4.82662
C         20.01362        4.98786        4.68860
H         19.81342        3.92724        4.65893
C         17.28848        6.10279        7.88026
C         19.70724        4.26076        8.41377
C         18.99806        1.00866        4.38445
C         20.77591        5.58324        3.69979
H         21.17678        4.98952        2.88922
C         18.60514        0.04836        8.06059
H         17.88314       -0.74260        7.83840
C         20.32069        1.43284        4.36789
H         20.75643        1.79415        3.44864
C         17.84019        1.21338        8.69464
H         18.54007        1.96037        9.05661
H         17.24200        0.85922        9.53227
H         17.19237        1.69193        7.96200
C         20.54452        0.94723        6.70432
H         21.15409        0.94768        7.59248
C         17.85829        2.53181        2.77644
H         17.35729        3.02031        3.62072
H         17.20309        2.58427        1.91056
H         18.77143        3.07723        2.55434
C         17.72567        7.06052        8.78982
H         18.76868        7.08011        9.07531
C         15.05334        7.00667        8.08725
H         14.01081        6.97859        7.80787
C         16.84922        7.97943        9.33891
H         17.20963        8.71648       10.04322
C         21.08687        1.39943        5.51576
H         22.11286        1.73620        5.48805
C         16.81161       -1.34308        5.48810
H         17.34468       -1.94834        6.22283
H         17.10507       -1.68647        4.48792
C         15.50976        7.95524        8.98721
H         14.82312        8.67204        9.41434
C         21.00997        3.92241        8.06826
H         21.31351        3.99707        7.03456
C         19.34638        4.17640        9.75532
H         18.34088        4.44593       10.04731
C         19.61525       -0.52191        9.05580
H         20.24315       -1.27615        8.58560
H         19.08753       -0.98362        9.88803
H         20.24907        0.26332        9.46005
C         21.02854        6.94430        3.74761
H         21.62325        7.41507        2.97741
C         20.24890        3.75639       10.71675
H         19.94742        3.69726       11.75340
C         21.53864        3.40944       10.35052
H         22.24527        3.07763       11.09823
C         21.91831        3.49724        9.02189
H         22.92660        3.23612        8.73099
C         18.16038        1.07327        3.12858
H         17.20379        0.58077        3.31683
C         18.83788        0.35587        1.95833
H         19.74396        0.87045        1.65034
H         18.16410        0.32037        1.10501
H         19.10163       -0.66358        2.23359
C         15.94047        6.09563        7.54412
H         15.57269        5.35326        6.83575
N         14.98234        0.08511        5.54206
C         12.87836        0.50650        4.40497
C         13.64121        0.54226        5.57828
C         13.10986        1.00778        6.78310
C         13.50499        0.04679        3.10755
H         14.22880       -0.74228        3.33047
C         11.78743        1.43264        6.79868
H         11.35132        1.79466        7.71748
C         14.26729        1.21326        2.47303
H         13.56572        1.95818        2.11011
H         14.86701        0.86013        1.63608
H         14.91335        1.69398        3.20581
C         11.56467        0.94598        4.46230
H         10.95575        0.94627        3.57367
C         14.25066        2.53043        8.39096
H         14.75277        3.01792        7.54677
H         14.90539        2.58244        9.25723
H         13.33806        3.07705        8.61228
C         11.02191        1.39909        5.65032
H          9.99615        1.73664        5.67729
C         15.29815       -1.34366        5.68089
H         14.76560       -1.94953        4.94628
H         15.00499       -1.68712        6.68113
C         12.49631       -0.52655        2.11268
H         11.86909       -1.28079        2.58376
H         13.02517       -0.98903        1.28160
H         11.86168        0.25712        1.70666
C         13.94702        1.07210        8.03932
H         14.90311        0.57844        7.85163
C         13.26838        0.35586        9.20962
H         12.36318        0.87198        9.51763
H         13.94215        0.31926       10.06290
H         13.00294       -0.66317        8.93438
Si        13.63918        4.84142        4.07919
O         14.49527        3.65492        4.70952
C         12.62343        5.72799        5.42560
C         12.36248        7.09346        5.39581
H         12.76841        7.69313        4.59375
C         11.59997        7.69772        6.38066
H         11.40971        8.76131        6.34070
C         12.09797        4.98622        6.47858
H         12.29844        3.92565        6.50811
C         14.82289        6.10386        3.28800
C         12.40535        4.26142        2.75180
C         11.33577        5.58140        7.46760
H         10.93536        4.98753        8.27831
C         14.38584        7.06101        2.37776
H         13.34300        7.08008        2.09165
C         17.05767        7.00889        3.08231
H         18.09997        6.98162        3.36262
C         15.26225        7.97999        1.82871
H         14.90201        8.71639        1.12362
C         16.60152        7.95644        2.18116
H         17.28822        8.67293        1.75360
C         11.10262        3.92249        3.09669
H         10.79878        3.99652        4.13034
C         12.76674        4.17768        1.41034
H         13.77205        4.44821        1.11864
C         11.08268        6.94237        7.41985
H         10.48801        7.41300        8.19016
C         11.86475        3.75744        0.44850
H         12.16651        3.69900       -0.58810
C         10.57514        3.40943        0.81420
H          9.86907        3.07704        0.06622
C         10.19488        3.49686        2.14269
H          9.18671        3.23491        2.43323
C         16.17058        6.09779        3.62543
H         16.53809        5.35629        4.33483
