65
CSD_code = EZIWEQ | q = 0 | S = 0 | Stoichiometry = C22H38Cl2Si2Zr | MND = 12
Zr        -0.37027        2.61705        4.15538
Cl        -1.96260        0.89377        4.47468
Si        -3.65395        2.76999        2.53616
C          0.38507        3.02134        1.69265
C         -1.82195        3.15369        2.36503
C         -0.82852        2.30056        1.78854
C         -1.18314        4.40858        2.64008
C         -1.92051        5.68508        2.93879
H         -1.30912        6.39483        3.49365
H         -2.83149        5.49308        3.50024
H         -2.20353        6.16749        1.99942
C         -1.02489        0.90966        1.25746
H         -1.18359        0.93505        0.17642
H         -1.88673        0.42956        1.71686
H         -0.14218        0.29792        1.45428
C          0.17305        4.32516        2.22264
C          1.10017        5.49152        2.00426
H          1.16192        5.70410        0.93424
H          2.11228        5.29807        2.35754
H          0.73007        6.38882        2.49296
C          1.60417        2.53767        0.95860
H          1.32572        2.24255       -0.05451
H          2.04650        1.66760        1.44707
H          2.35762        3.31910        0.88859
C         -4.23101        3.23027        4.30128
H         -3.37689        3.33110        4.96904
H         -4.86117        2.44578        4.70562
H         -4.81044        4.14937        4.32140
C         -4.62906        3.83548        1.28667
H         -5.68765        3.61015        1.35339
H         -4.31490        3.63367        0.26847
H         -4.51018        4.89941        1.46053
H         -3.98821        1.36991        2.22377
Cl         1.22227        0.89382        3.83658
Si         2.91337        2.77009        5.77448
C         -1.12562        3.02134        6.61816
C          1.08137        3.15373        5.94571
C          0.08798        2.30060        6.52229
C          0.44252        4.40859        5.67062
C          1.17991        5.68509        5.37199
H          0.56859        6.39487        4.81710
H          2.09094        5.49311        4.81061
H          1.46285        6.16747        6.31141
C          0.28432        0.90970        7.05339
H          0.44273        0.93509        8.13447
H          1.14630        0.42966        6.59421
H         -0.59830        0.29791        6.85633
C         -0.91365        4.32515        6.08810
C         -1.84080        5.49147        6.30660
H         -1.90269        5.70378        7.37665
H         -2.85287        5.29810        5.95314
H         -1.47064        6.38888        5.81816
C         -2.34471        2.53771        7.35221
H         -2.06621        2.24239        8.36528
H         -2.78720        1.66776        6.86365
H         -3.09805        3.31925        7.42240
C          3.49040        3.23035        4.00935
H          2.63584        3.33151        3.34193
H          4.12022        2.44535        3.60485
H          4.07021        4.14940        3.98933
C          3.88865        3.83548        7.02394
H          4.94725        3.61024        6.95705
H          3.57468        3.63358        8.04219
H          3.76969        4.89942        6.85021
H          3.24764        1.37001        6.08692
