44
CSD_code = FAGCEV | q = 0 | S = 0 | Stoichiometry = C15H23AsFeO3Si | MND = 8
As         4.14214        4.19085        6.21180
Fe         4.92490        2.15297        5.53890
Si         3.30939        4.42420        2.00223
C          5.65997        3.03060        4.23106
C          3.39276        1.89936        4.74641
C          3.30535        4.99440        4.81733
C          2.57407        6.32545        4.91784
C          2.72502        6.89880        6.32793
C          3.14959        7.33907        3.92528
C          1.08609        6.09011        4.63750
C          4.71233        0.74741        7.26049
C          5.26510        0.03959        6.15863
C          6.50920        0.61978        5.84893
C          6.72996        1.69129        6.75577
C          5.63847        1.73766        7.65039
C          3.54840        2.60725        1.49354
C          1.69300        5.03530        1.18156
C          4.76176        5.51177        1.39662
O          6.24365        3.60380        3.42346
O          2.36035        1.63091        4.32449
O          3.24710        4.32928        3.63206
H          2.31331        6.20632        7.06537
H          2.20140        7.84850        6.40312
H          3.78082        7.05316        6.56093
H          2.99133        7.01745        2.90241
H          4.21841        7.45480        4.09398
H          2.66863        8.30573        4.05996
H          0.54107        7.03106        4.67102
H          0.67510        5.41874        5.38951
H          0.94739        5.63962        3.66076
H          3.82217        0.47039        7.80128
H          4.84885       -0.84823        5.71016
H          7.21662        0.25627        5.12106
H          7.64311        2.25648        6.84855
H          5.55114        2.38457        8.50963
H          3.76509        2.53280        0.43292
H          2.65590        2.02076        1.68630
H          4.36544        2.13994        2.03521
H          1.75392        4.87386        0.10968
H          1.49587        6.09254        1.33416
H          0.82957        4.48167        1.53952
H          5.31022        5.00694        0.60767
H          5.46560        5.71669        2.19740
H          4.42987        6.46576        0.99679
