109
CSD_code = FAKZAU | q = 0 | S = 0 | Stoichiometry = C40H63N2O2SiY | MND = 9
Y          2.29790        8.18213       15.93229
Si         1.31178        4.73395       16.67911
O          4.00761        9.05307       14.23666
O          4.69256        8.35096       17.06189
N          0.66835        9.22980       14.79608
N          1.64644        9.61576       17.40884
C         -0.05583        9.91954       15.74827
H         -1.05475       10.25842       15.48939
C          0.42559       10.12322       17.00394
H         -0.16636       10.66906       17.73515
C          0.32080        9.40070       13.46283
C          0.10977       10.68136       12.88452
C         -0.17119       10.78185       11.53087
H         -0.33858       11.75749       11.09907
C         -0.23125        9.67298       10.70992
H         -0.43854        9.78045        9.65548
C         -0.03373        8.42355       11.26574
H         -0.09776        7.55076       10.63196
C          0.21651        8.26745       12.61793
C          0.21822       11.97649       13.66603
H          0.60428       11.75592       14.66405
C          1.17802       12.97196       13.00257
H          0.74878       13.38695       12.09411
H          2.12331       12.49930       12.74522
H          1.37810       13.79812       13.68282
C         -1.15601       12.63421       13.82542
H         -1.84952       11.96829       14.33280
H         -1.57661       12.88112       12.85299
H         -1.07058       13.54958       14.40820
C          0.32940        6.86137       13.16720
H          0.43543        6.91809       14.26129
C         -0.93904        6.05536       12.87440
H         -0.88523        5.08285       13.36019
H         -1.06873        5.89512       11.80684
H         -1.81453        6.58151       13.24889
C          1.56504        6.15427       12.60557
H          2.46242        6.71553       12.86434
H          1.50374        6.07207       11.52190
H          1.65602        5.15517       13.02644
C          2.26642       10.24499       18.48484
C          2.61789        9.50212       19.63518
C          3.21028       10.14634       20.70771
H          3.45661        9.59408       21.60157
C          3.47437       11.50507       20.67326
H          3.92065       11.99350       21.52710
C          3.16626       12.22763       19.53756
H          3.38798       13.28469       19.51050
C          2.57977       11.62351       18.43679
C          2.27633        8.02816       19.69850
H          2.43254        7.59867       18.69125
C          0.79385        7.86639       20.05394
H          0.17183        8.36811       19.31627
H          0.59328        8.30475       21.03021
H          0.51989        6.81344       20.08045
C          3.13799        7.24141       20.68544
H          2.97443        6.17370       20.55270
H          2.88089        7.48750       21.71344
H          4.19448        7.44598       20.52968
C          2.33741       12.44358       17.18622
H          2.03139       11.76289       16.38579
C          1.22219       13.46864       17.40375
H          1.05520       14.04401       16.49503
H          1.48601       14.15652       18.20422
H          0.29289       12.97249       17.67046
C          3.61007       13.15528       16.71526
H          3.93701       13.90069       17.43579
H          3.42005       13.65981       15.76942
H          4.42174       12.44527       16.56587
C          4.64613        4.97262       14.65412
H          4.60864        4.75381       13.59816
H          5.57901        4.76069       15.15277
C          3.60500        5.44355       15.29762
C          2.57868        5.91893       15.92112
C         -0.30305        5.72802       16.97473
H         -0.95163        5.69824       16.10408
H         -0.09193        6.77901       17.19340
H         -0.86873        5.32612       17.80987
C          0.91701        3.21815       15.57988
H          1.82224        2.65939       15.36594
H          0.48637        3.51682       14.62960
H          0.21552        2.54387       16.06136
C          1.93312        4.05349       18.35864
H          2.07211        4.85023       19.08133
H          2.88357        3.54294       18.24169
H          1.22722        3.34542       18.78120
C          4.97668        8.36479       13.44979
H          4.92262        7.30118       13.69627
H          5.97807        8.74387       13.70382
C          4.64384        8.68597       11.98195
H          4.13284        7.85296       11.50381
H          5.54997        8.89954       11.41776
C          3.72119        9.91394       12.07754
H          4.04521       10.73018       11.43599
H          2.69679        9.64981       11.81675
C          3.79697       10.28849       13.55979
H          4.64847       10.95926       13.75166
H          2.88067       10.73268       13.94794
C          5.42557        9.54844       17.28219
H          4.71476       10.37340       17.32499
H          6.14105        9.70650       16.46053
C          6.15882        9.31568       18.59983
H          5.47375        9.49971       19.42703
H          7.02815        9.95909       18.71048
C          6.52404        7.82947       18.50825
H          7.55497        7.69938       18.18096
H          6.40792        7.32511       19.46485
C          5.54941        7.27603       17.45127
H          6.09436        6.91123       16.57137
H          4.91485        6.47111       17.82697
