32
CSD_code = FANXEZ | q = 0 | S = 0 | Stoichiometry = C13H9CrF2NO5Si | MND = 6
Cr         5.70471        5.27852        3.61650
C          6.51348        6.37583        4.89743
C          5.00787        4.24542        5.02432
C          7.24691        4.20582        3.61284
C          4.19183        6.39162        3.66814
C          6.44964        6.37313        2.28079
C          4.85004        4.16446        2.30969
C          3.63785        2.75694        0.61442
C          2.51026        3.14056       -0.03002
C          1.81637        2.36269       -0.96521
C          1.19820        1.70557       -1.77285
C         -0.91057       -0.46346       -2.01805
H         -0.36021       -1.09998       -1.33154
H         -1.48497       -1.10885       -2.67647
H         -1.61520        0.11918       -1.43206
C          1.55627       -0.34879       -3.97446
H          2.24438        0.29830       -4.51026
H          1.08258       -1.00051       -4.70306
H          2.14504       -0.97241       -3.30829
C         -0.69540        1.85692       -4.13849
H         -1.38045        2.47559       -3.56635
H         -1.27982        1.31648       -4.87765
H         -0.02291        2.52128       -4.67304
F          4.17147        1.54461        0.36234
F          2.01587        4.36547        0.25530
N          4.29683        3.49124        1.51292
O          7.00553        7.04734        5.68480
O          4.61465        3.65398        5.92155
O          8.20971        3.58936        3.65756
O          3.29908        7.10286        3.73794
O          6.92790        7.07534        1.51453
Si         0.26437        0.66220       -3.00840
