54
CSD_code = FEFYAQ | q = 0 | S = 0 | Stoichiometry = C22H28MnOPSi | MND = 9
Mn         7.59810        3.62235        4.91790
P          7.74730        2.27366        6.71654
Si         6.49619        3.39007        2.70139
C          5.68472        1.71669        2.24687
C          5.47309        1.35618        0.92054
C          4.87121        0.15333        0.59577
C          4.46750       -0.71354        1.59707
C          4.67228       -0.37072        2.92359
C          5.27644        0.83228        3.23910
C          7.68701        3.71753        1.24368
C          8.77297        2.87951        1.00787
C          9.63301        3.10083       -0.05193
C          9.42404        4.17396       -0.90291
C          8.34598        5.01516       -0.68781
C          7.48904        4.78431        0.37432
C          6.77248        0.72063        6.69447
C          9.38533        1.57629        7.16093
C          7.16306        2.95105        8.31820
C          5.88760        3.51981        5.31915
O          4.78647        3.53995        5.69437
C          8.93713        4.75135        6.16078
C          7.77135        5.50235        5.90855
C          9.57886        4.50612        4.92910
C          8.83473        5.15163        3.92172
C          7.70840        5.77459        4.52272
C          6.79960        6.76609        3.86538
H          8.07487        2.30722        4.29357
H          5.39613        4.37337        2.44209
H          9.29540        0.96305        8.05786
H         10.11710        2.36273        7.33108
H          9.71745        0.96129        6.32488
H          5.78939        2.02758        0.13605
H          4.71645       -0.11070       -0.44093
H          3.99799       -1.65367        1.34467
H          4.36044       -1.04506        3.70913
H          5.45445        1.11307        4.26938
H          8.94021        2.04374        1.67213
H         10.47085        2.43771       -0.21698
H         10.09670        4.35293       -1.72972
H          8.17331        5.85242       -1.34992
H          6.64515        5.44230        0.52771
H         10.55959        4.06550        4.80340
H          9.14432        5.27716        2.89245
H          7.13571        5.94972        6.66276
H          9.36531        4.56449        7.13834
H          6.96678        0.14309        7.59873
H          7.23441        2.17930        9.08497
H          7.74786        3.81640        8.62233
H          6.12161        3.25055        8.20007
H          5.77512        6.66796        4.22302
H          7.14206        7.77904        4.09467
H          6.80715        6.64016        2.78457
H          5.71254        0.96717        6.63689
H          7.05448        0.14593        5.81246
