60
CSD_code = FERJAN | q = 0 | S = 0 | Stoichiometry = C26H30CrO2Si | MND = 10
Cr         2.32089        5.90983        4.05024
Si         3.85954        5.62526        5.96436
C          3.15245        5.07715        2.66198
O          3.49409        4.58403        1.64455
C          4.08859        6.02241        3.59443
O          5.20911        6.31767        3.33684
C          1.23002        7.83265        5.24621
C          0.28440        6.81215        5.10202
C          0.02145        6.26571        3.80438
C          0.63248        6.84047        2.67596
C          1.75214        7.68080        2.85459
C          2.10399        8.11950        4.16113
C          2.79866        5.53495        7.54182
C          2.97409        6.43848        8.58409
C          2.22623        6.35379        9.74681
C          1.28794        5.34684        9.89233
C          1.11286        4.42469        8.87268
C          1.86024        4.52308        7.71324
C          4.95727        4.07590        6.08080
C          5.65914        3.80330        7.25233
C          6.47464        2.69162        7.35799
C          6.60228        1.82410        6.28623
C          5.90498        2.07443        5.11652
C          5.09015        3.18878        5.01811
C          1.28500        8.64353        6.51327
C         -0.57153        6.38784        6.26498
C         -1.07553        5.24929        3.62972
C          0.13854        6.52937        1.28904
C          2.47623        8.20064        1.64259
C          3.24162        9.08641        4.35766
H          1.94785        4.51659        4.57279
H          4.78158        6.76722        6.26607
H          1.73865        9.61399        6.33302
H         -0.64896        5.30404        6.30906
H         -2.04851        5.74026        3.55077
H          0.28459        7.38320        0.63127
H          3.48021        8.53410        1.88559
H          2.95911       10.09822        4.05829
H          3.72452        7.21170        8.49095
H          2.37896        7.06978       10.54252
H          0.70345        5.27548       10.79837
H          0.39185        3.62745        8.98800
H          1.72433        3.80421        6.91857
H          5.55878        4.47590        8.09215
H          7.01239        2.49990        8.27606
H          7.24057        0.95551        6.36360
H          5.99725        1.39910        4.27813
H          4.54012        3.37473        4.10520
H         -1.11088        4.56685        4.47401
H         -0.90986        4.65131        2.73788
H         -0.92290        6.29425        1.29590
H          0.67739        5.67958        0.86735
H          1.93966        9.04753        1.20874
H          2.56519        7.42445        0.88462
H          4.10833        8.78999        3.77076
H          3.55992        9.10412        5.39619
H          1.85054        8.13405        7.29395
H          0.27666        8.81840        6.88521
H         -1.57988        6.79536        6.16532
H         -0.15090        6.71329        7.21100
