57
CSD_code = FIHJIQ | q = 0 | S = 0 | Stoichiometry = C17H33Cl4PRuSi | MND = 9
Ru         7.49250        5.98211        4.13778
Si         8.62113        4.72528        2.44851
P          7.89345        4.63884        6.05312
Cl         5.84396        4.27970        3.80293
Cl        10.46063        5.56166        1.88832
Cl         9.16357        2.72252        2.68249
Cl         7.62490        4.66480        0.63201
C          7.69586        8.21924        4.18295
C          7.35893        7.81977        2.83854
C          6.07889        7.21833        2.88764
C          5.58939        7.30569        4.24750
C          6.57288        7.93568        5.03641
C          8.81947        9.14754        4.52562
C          8.12482        8.22576        1.61909
C          5.21594        6.83158        1.73206
C          4.17133        7.01863        4.61572
C          6.40225        8.49495        6.41532
C          7.67545        2.82936        5.90467
C          6.83076        5.05653        7.53645
C          7.24976        4.37477        8.83685
C          5.37046        4.73212        7.22871
C          9.61652        4.71485        6.75802
C         10.63665        4.20972        5.74443
C          9.96769        6.12578        7.21251
H          8.50841       10.17189        4.30860
H          9.70434        8.92776        3.93221
H          9.08146        9.08835        5.57987
H          7.92067        9.27626        1.40074
H          7.83748        7.63080        0.75613
H          9.19634        8.10898        1.76780
H          4.41826        7.56809        1.61388
H          4.75338        5.85921        1.90287
H          5.78634        6.78111        0.80876
H          3.51754        7.70663        4.07597
H          3.99759        7.14056        5.68214
H          3.89423        6.00420        4.32493
H          6.12813        9.54985        6.33742
H          7.32602        8.43267        6.98802
H          5.61434        7.98039        6.96021
H          8.13348        2.32828        6.75635
H          8.14274        2.49066        4.98087
H          6.61421        2.59792        5.85130
H          6.93323        6.14004        7.66050
H          6.51719        4.61037        9.60809
H          8.22020        4.71527        9.18730
H          7.27449        3.29396        8.72227
H          4.70795        5.27635        7.90055
H          5.18014        3.66946        7.35996
H          5.12167        4.99162        6.20290
H          9.62268        4.03804        7.62031
H         11.62642        4.18622        6.19693
H         10.67285        4.86806        4.87911
H         10.39319        3.20790        5.40095
H         10.98771        6.15538        7.59107
H          9.30080        6.47290        7.99907
H          9.89908        6.80859        6.36671
H          8.92781        6.33372        4.45605
