36
CSD_code = FIRLEZ | q = 0 | S = 0 | Stoichiometry = C11H18FeO4Si2 | MND = 7
Fe         2.94981        3.18002        1.55994
Si         1.53320        0.55283        3.51390
C          2.96820        1.00699        2.36384
H          3.07912        0.38143        1.48106
C          4.08727        1.69673        2.76734
H          4.16173        2.05351        3.78705
H          5.04342        1.54630        2.27694
C          1.77892        1.20272        5.28243
H          1.87297        2.28316        5.30516
H          2.66887        0.78025        5.73721
H          0.93259        0.93820        5.90867
C          1.31996       -1.33857        3.47674
H          0.46099       -1.63993        4.06725
H          2.19146       -1.84445        3.87860
H          1.16287       -1.69979        2.46534
O          0.14980        1.19976        2.92869
Si        -0.45784        2.13799        1.73484
C          0.93954        2.62262        0.55138
H          1.19826        1.87971       -0.19968
C          1.29358        3.92162        0.27190
H          0.79134        4.73745        0.77671
H          1.72525        4.18919       -0.68697
C         -1.70612        1.07080        0.77194
H         -1.22633        0.20572        0.32525
H         -2.18062        1.63528       -0.02375
H         -2.48769        0.70600        1.43026
C         -1.28863        3.64425        2.54198
H         -2.07480        3.32976        3.22129
H         -1.73815        4.29244        1.79692
H         -0.58223        4.23452        3.11580
C          4.00500        4.57605        1.62378
O          4.69413        5.49486        1.67003
C          3.92899        2.81646        0.13859
O          4.64708        2.71812       -0.75188
C          2.28322        3.95094        2.99282
O          1.97674        4.58558        3.90062
