84
CSD_code = FOKQUS | q = 0 | S = 0 | Stoichiometry = C34H46Cl2SiZr | MND = 12
Zr         0.07785       14.35305       12.66893
Cl        -2.24614       14.16967       12.59985
Cl        -0.04172       16.70160       12.70215
Si         2.79654       12.46394       12.71998
C          1.80958       13.29949       11.32995
C          1.93326       14.66288       10.91893
C          0.77835       15.06990       10.23671
H          0.66004       16.02653        9.74569
C         -0.13119       13.97682       10.19481
C         -1.42440       13.84582        9.63729
C         -2.05402       12.63208        9.76950
H         -3.03979       12.50292        9.35541
C         -1.47943       11.55131       10.46610
C         -0.22891       11.67026       11.03279
H          0.20513       10.82163       11.54362
C          0.49882       12.86989       10.88863
C          3.13077       15.55744       11.06066
H          3.41640       15.94361       10.08140
H          3.98168       15.02535       11.47290
H          2.89087       16.41646       11.69178
C         -2.05385       15.03210        8.94296
H         -1.63967       15.93955        9.40002
C         -1.67835       15.01567        7.45798
H         -2.08802       15.88768        6.95314
H         -2.07409       14.12078        6.98223
H         -0.59732       15.01783        7.33727
C         -3.57027       15.08245        9.12264
H         -3.95110       16.04178        8.77916
H         -3.82307       14.96451       10.17381
H         -4.06348       14.30116        8.54935
C         -2.27587       10.28466       10.66136
H         -1.60923        9.52962       11.09372
C         -2.81966        9.72159        9.34814
H         -2.01222        9.58202        8.63254
H         -3.55768       10.38735        8.90948
H         -3.29574        8.75957        9.52545
C         -3.40543       10.56033       11.65736
H         -3.00191       11.00664       12.56466
H         -3.92336        9.63854       11.91358
H         -4.12334       11.25700       11.23247
C          1.66925       13.14813       14.08675
C          1.60662       14.50781       14.52964
C          0.33699       14.76996       15.09130
H          0.06719       15.68703       15.60272
C         -0.42741       13.56500       15.04602
C         -1.72541       13.24594       15.50994
C         -2.12279       11.93469       15.42005
H         -3.09957       11.65010       15.77959
C         -1.30050       10.91600       14.89091
C         -0.06760       11.23084       14.36855
H          0.58372       10.46034       13.98986
C          0.39185       12.56094       14.41571
C          2.70771       15.53022       14.54460
H          3.13296       15.59949       15.54828
H          2.30865       16.51313       14.28292
H          3.50919       15.27501       13.85919
C         -2.58018       14.33894       16.10931
H         -2.29356       15.28251       15.62620
C         -4.07186       14.13110       15.85675
H         -4.24672       13.96022       14.79755
H         -4.62397       15.01754       16.16106
H         -4.45587       13.28536       16.42188
C         -2.29172       14.44563       17.61030
H         -1.23234       14.61810       17.78665
H         -2.57531       13.52255       18.11172
H         -2.85662       15.26571       18.04776
C         -1.80381        9.49464       15.01140
H         -2.87077        9.49393       14.75947
C         -1.09900        8.49763       14.09633
H         -1.12010        8.83988       13.06546
H         -1.60235        7.53438       14.14671
H         -0.06518        8.35111       14.40100
C         -1.65841        9.04629       16.47098
H         -2.04990        8.03945       16.59974
H         -2.19734        9.71580       17.13649
H         -0.60934        9.05097       16.75959
C          2.89289       10.55809       12.58526
H          3.71566       10.28824       11.93096
H          2.00386       10.08587       12.18780
H          3.09736       10.12234       13.55813
C          4.65420       12.90120       12.87503
H          5.14435       12.77751       11.91473
H          5.11945       12.20529       13.56525
H          4.87459       13.89813       13.23477
