80
CSD_code = FOYJUY | q = 0 | S = 0 | Stoichiometry = C20H50ClNbO2P4Si2 | MND = 7
Nb         4.12154        2.34051        0.00009
Cl         4.12086        4.77141       -0.00091
P          5.50184        3.03345        2.01002
P          6.41398        2.52165       -0.99350
Si         4.35417       -1.67217        2.26667
O          5.09341       -0.63517        1.26040
C          4.52232        0.38564        0.52543
C          2.91915       -2.65467        1.47364
C          5.76251       -2.82815        2.81218
C          3.65715       -0.70878        3.77339
C          5.03242        4.31481        3.24646
C          6.24635        1.78876        3.13195
C          7.04964        3.83285        1.36067
C          6.81104        3.83324       -2.22147
C          7.23370        1.06815       -1.74390
C          7.67551        2.92155        0.31837
H          2.18478       -2.97847        2.20519
H          2.40873       -2.04751        0.73194
H          3.28228       -3.54168        0.96320
H          5.39154       -3.54277        3.53835
H          6.57975       -2.28317        3.27341
H          6.16968       -3.38804        1.97695
H          2.72591       -1.12797        4.14165
H          3.47104        0.32556        3.49029
H          4.35683       -0.70408        4.60450
H          4.62817        5.18120        2.72664
H          5.90191        4.60957        3.83497
H          4.26936        3.90537        3.90804
H          6.53528        0.91553        2.55274
H          5.49203        1.48036        3.85174
H          7.10753        2.20096        3.65919
H          7.73769        4.02784        2.19104
H          6.76157        4.78812        0.91114
H          8.56646        3.37234       -0.13252
H          7.95435        1.96971        0.78255
H          7.88334        3.88504       -2.41379
H          6.28078        3.61136       -3.14707
H          6.45449        4.78875       -1.83753
H          6.80883        0.87921       -2.72700
H          7.03676        0.20662       -1.10818
H          8.30786        1.23733       -1.83061
P          2.74140        3.03363       -2.00989
P          1.82942        2.52173        0.99353
C          3.72053        0.38574       -0.52555
C          3.21016        4.31539       -3.24619
C          1.99715        1.78911       -3.13217
C          1.19329        3.83247       -1.36055
C          1.43194        3.83377        2.22091
C          1.00992        1.06847        1.74466
C          0.56770        2.92084       -0.31836
O          3.14929       -0.63495       -1.26058
H          3.61358        5.18208       -2.72624
H          2.34064        4.60951       -3.83501
H          3.97374        3.90659       -3.90754
H          1.70768        0.91599       -2.55312
H          2.75174        1.48041       -3.85150
H          1.13639        2.20143       -3.65993
H          0.50516        4.02741       -2.19086
H          1.48111        4.78776       -0.91086
H          0.35963        3.88552        2.41314
H          1.96219        3.61244        3.14665
H          1.78840        4.78914        1.83657
H          1.43413        0.88071        2.72827
H          1.20789        0.20645        1.10994
H         -0.06443        1.23701        1.83041
H         -0.32357        3.37115        0.13238
H          0.28942        1.96886       -0.78257
Si         3.88859       -1.67203       -2.26674
C          5.32329       -2.65476       -1.47343
C          2.48014       -2.82769       -2.81263
C          4.58616       -0.70872       -3.77326
H          6.05767       -2.97882       -2.20486
H          5.83375       -2.04760       -0.73179
H          4.95994       -3.54162       -0.96291
H          2.85112       -3.54236       -3.53873
H          1.66311       -2.28252       -3.27401
H          2.07266       -3.38752       -1.97750
H          5.51745       -1.12804       -4.14123
H          4.77233        0.32559       -3.49011
H          3.88674       -0.70392       -4.60460
