82
CSD_code = FUDMEY | q = 0 | S = 0 | Stoichiometry = C21H51I2O3Si4Y | MND = 6
Y         11.08617        3.04657        3.16231
I         13.35817        3.68314        4.83377
I          8.81465        3.83205        1.55592
Si        11.23513        0.32018        2.91288
Si        10.97781       -0.48090        0.68438
Si         9.40962       -0.51145        4.20228
Si        13.20713       -0.68626        3.80534
O          9.53432        3.79931        5.20240
O         12.64187        3.55009        1.05709
O         11.20414        5.75806        3.15835
C         10.42526       -2.30816        0.63381
H          9.42299       -2.41833        1.03615
H         11.08596       -2.93588        1.22224
H         10.41571       -2.70084       -0.37905
C          9.69743        0.49184       -0.35019
H          9.55917        0.05274       -1.33535
H          9.99437        1.52619       -0.49645
H          8.72731        0.50492        0.13704
C         12.63831       -0.35979       -0.26609
H         12.53489       -0.67210       -1.30167
H         13.39718       -0.98787        0.19010
H         13.01507        0.65883       -0.26845
C          9.37473       -2.39302        4.52174
H          8.50276       -2.69281        5.09642
H         10.25486       -2.70901        5.07314
H          9.35732       -2.94514        3.58805
C          9.44213        0.31865        5.93465
H          8.46394        0.32682        6.40897
H          9.79086        1.34814        5.86969
H         10.12106       -0.20501        6.60023
C          7.74006       -0.05130        3.38245
H          7.57788       -0.64998        2.49135
H          7.71163        0.99052        3.07412
H          6.89396       -0.21966        4.04410
C         13.29102       -2.54478        3.36607
H         13.41556       -2.69011        2.29754
H         12.38317       -3.05963        3.66313
H         14.12311       -3.03686        3.86150
C         14.83109        0.08693        3.14934
H         15.69969       -0.45003        3.52146
H         14.93679        1.12051        3.46322
H         14.87532        0.05675        2.06393
C         13.24851       -0.55411        5.71068
H         14.16969       -0.95966        6.12005
H         12.42343       -1.09980        6.15880
H         13.17894        0.47837        6.03811
C         10.01742        4.41115        6.41294
H         10.69730        5.22533        6.14871
H         10.57603        3.65805        6.98322
C          8.79112        4.88432        7.18653
H          8.96315        4.88531        8.25966
H          8.50372        5.88854        6.87198
C          7.73901        3.87145        6.74407
H          6.71934        4.22469        6.87317
H          7.86498        2.93380        7.28617
C          8.10272        3.68797        5.27656
H          7.81087        2.71439        4.87511
H          7.64913        4.47751        4.66299
C         12.21523        4.02307       -0.22924
H         11.45283        4.79031       -0.07796
H         11.77552        3.18809       -0.79124
C         13.47037        4.53610       -0.92250
H         13.71728        5.54044       -0.57428
H         13.36642        4.55113       -2.00415
C         14.50900        3.53125       -0.43044
H         15.52663        3.91075       -0.47465
H         14.45027        2.61375       -1.01704
C         14.05656        3.27847        1.00667
H         14.22806        2.24810        1.33113
H         14.56162        3.95596        1.70605
C         12.28409        6.53200        2.64786
H         12.93363        5.87258        2.07200
H         12.85670        6.95038        3.48749
C         11.64945        7.65687        1.81101
H         12.15295        8.60442        1.99297
H         11.70876        7.43818        0.74579
C         10.18756        7.67821        2.28758
H          9.52307        7.29392        1.51447
H          9.85197        8.67142        2.57504
C         10.20358        6.71471        3.47710
H          9.25707        6.19531        3.62281
H         10.48233        7.24467        4.40069
