101
CSD_code = FUDRUT | q = 0 | S = 0 | Stoichiometry = C30H60I2NO3Si4Y | MND = 7
Y          5.09751       11.96481        1.67758
I          7.20261       13.82264        1.20794
I          3.30466        9.77421        1.41111
Si         4.45506       12.82525        5.50432
Si         3.34175       14.38562        6.91260
Si         3.71208       10.59149        5.93088
Si         6.83861       12.92743        5.71911
O          7.01294       10.03202        1.51656
O          5.60602       11.38425       -0.94131
O          3.54347       13.33743       -0.00956
N          3.59662       13.71200        2.94051
C          4.32016       12.89271        3.57462
C          2.72043       14.73103        3.22228
C          3.18371       16.05715        3.28449
C          2.25907       17.08529        3.35412
H          2.61201       18.10589        3.40565
C          0.89839       16.82744        3.35909
H          0.19174       17.64161        3.41329
C          0.44947       15.51902        3.29284
H         -0.61201       15.31350        3.29737
C          1.34014       14.46256        3.21904
C          4.65584       16.33903        3.27116
H          4.85191       17.37034        3.55330
H          5.07360       16.17898        2.27610
H          5.18236       15.67888        3.95826
C          0.86167       13.04344        3.15159
H          1.44332       12.47423        2.42592
H         -0.18958       12.99978        2.87516
H          0.98254       12.55740        4.11921
C          3.73618       16.24364        6.68942
H          3.25309       16.64892        5.80711
H          4.80377       16.41693        6.59130
H          3.39243       16.82005        7.54513
C          1.43982       14.19638        6.83945
H          0.95200       14.77511        7.61947
H          1.13936       13.16041        6.96842
H          1.04799       14.54078        5.88767
C          3.87924       13.97439        8.70287
H          3.29986       14.53965        9.42763
H          4.92442       14.21912        8.86491
H          3.75105       12.92271        8.93411
C          1.94093       10.12880        5.37097
H          1.82852       10.18938        4.29349
H          1.19910       10.78321        5.82087
H          1.69024        9.11091        5.66126
C          3.78103       10.21403        7.80189
H          2.98396       10.72474        8.33198
H          4.72208       10.52798        8.24138
H          3.66905        9.15176        7.99643
C          4.92085        9.37296        5.08082
H          4.47662        8.39435        4.92059
H          5.82684        9.23794        5.66440
H          5.20973        9.76735        4.10809
C          7.33818       12.44305        7.49758
H          6.96908       11.45728        7.76180
H          6.93708       13.14549        8.21948
H          8.41668       12.43159        7.62159
C          7.75644       11.68506        4.57562
H          8.72793       12.06370        4.26738
H          7.17588       11.49391        3.67002
H          7.91318       10.72950        5.06806
C          7.59586       14.65494        5.38285
H          7.08773       15.42454        5.95709
H          7.53196       14.92914        4.33422
H          8.64716       14.68821        5.65888
C          6.96886        8.65140        1.90963
H          6.28218        8.11299        1.24302
H          6.58482        8.58638        2.92990
C          8.38898        8.11309        1.77748
H          8.96074        8.32453        2.68167
H          8.40374        7.04254        1.58940
C          8.91990        8.94163        0.61223
H          8.56090        8.53396       -0.33418
H         10.00487        9.00064        0.58332
C          8.28114       10.29618        0.89359
H          8.89861       10.88025        1.58757
H          8.10963       10.88702       -0.00847
C          3.70221       14.71582       -0.33131
H          4.14058       14.80488       -1.33642
H          4.38000       15.16300        0.39464
C          2.29715       15.33304       -0.30199
H          2.11527       15.83034        0.64861
H          2.17727       16.06119       -1.10150
C          1.36686       14.12109       -0.46995
H          0.76784       13.97563        0.42644
H          0.69799       14.22053       -1.32192
C          2.33866       12.95168       -0.66133
H          2.53982       12.79305       -1.73189
H          1.98526       12.01812       -0.22400
C          5.85804       12.27158       -2.02148
H          6.21240       13.22057       -1.62076
H          4.92997       12.43305       -2.58984
C          6.89365       11.55623       -2.89180
H          7.89795       11.77053       -2.52636
H          6.83161       11.86923       -3.93107
C          6.53899       10.07449       -2.69276
H          6.09984        9.63828       -3.58782
H          7.41975        9.49090       -2.42950
C          5.51550       10.09681       -1.54308
H          4.49776        9.94590       -1.92856
H          5.71303        9.34703       -0.77777
