58
CSD_code = FUMXAO | q = 0 | S = 0 | Stoichiometry = C19H31BClFeO3PSi | MND = 6
Fe         5.38532        0.27177        4.60388
C          4.26777        0.80910        5.85093
O          3.59292        1.11956        6.72255
C          6.65808        0.12421        5.80156
O          7.47447        0.01840        6.60336
C          4.48437        0.63009        3.14136
O          3.87513        0.84838        2.19079
B          5.74017        2.28379        4.33119
Cl         6.25809        2.95475        2.84090
P          4.56825       -1.77464        4.67421
C          2.81115       -1.81710        5.20975
H          2.42369       -2.83607        5.16927
H          2.22265       -1.17627        4.55344
H          2.73084       -1.43977        6.22828
C          5.26316       -2.98262        5.86326
H          4.69025       -3.91049        5.84274
H          5.21447       -2.54267        6.85941
H          6.30428       -3.18533        5.62521
C          4.39650       -2.77883        3.14910
H          5.36444       -2.93963        2.68222
H          3.76192       -2.23058        2.45270
H          3.93449       -3.73903        3.38266
Si         7.19873       -0.31330        3.28567
C          7.99115       -2.03437        3.68944
H          7.31251       -2.87100        3.56406
H          8.36015       -2.05680        4.71005
H          8.84035       -2.21001        3.03691
C          6.82741       -0.41280        1.39650
H          7.68234       -0.81579        0.86366
H          6.62869        0.57550        0.99781
H          5.96907       -1.03564        1.16795
C          8.80313        0.75388        3.35485
H          9.54786        0.33151        2.68793
H          9.23157        0.76351        4.35202
H          8.64374        1.78006        3.04826
C          5.45537        3.34760        5.46752
C          6.47004        3.73179        6.35323
C          6.20856        4.63332        7.38425
C          4.93281        5.15695        7.51342
H          4.72634        5.85269        8.31537
C          3.91854        4.82338        6.63090
C          4.18224        3.91895        5.60273
C          7.86032        3.19241        6.18671
H          8.17078        2.63946        7.07299
H          8.56790        4.00903        6.04248
H          7.91744        2.53105        5.32685
C          7.28823        5.03857        8.34205
H          6.89682        5.71827        9.09494
H          8.10211        5.53739        7.81628
H          7.70470        4.16636        8.84483
C          2.55758        5.43218        6.78907
H          2.27869        5.99299        5.89733
H          2.53776        6.10728        7.64106
H          1.80542        4.65885        6.94323
C          3.08293        3.58090        4.63603
H          2.22621        3.15482        5.15890
H          3.41837        2.86872        3.88784
H          2.74222        4.48027        4.12275
