74
CSD_code = FUNQEL | q = 0 | S = 0 | Stoichiometry = C27H42N2OSiW | MND = 9
C          7.19583       -1.11757       17.07932
H          8.18405       -0.67401       16.97627
H          7.31560       -2.17562       17.29818
H          6.69120       -0.64592       17.91936
C          6.38812       -0.92749       15.79437
H          5.41181       -1.40492       15.92100
H          6.89663       -1.41175       14.95796
C          6.18100        0.51860       15.50427
C          6.49291        1.12731       14.35714
C          6.23640        2.53089       14.15199
C          5.78368        2.66222       11.75709
C          6.63756        3.04815       10.71572
C          6.36175        2.62402        9.42639
H          7.02148        2.91190        8.62059
C          5.24854        1.84447        9.16579
H          5.03989        1.52163        8.15682
C          4.39677        1.48930       10.19636
H          3.51966        0.89421        9.98724
C          4.64334        1.88767       11.50194
C          3.70491        1.52588       12.61031
H          2.72067        1.29200       12.21265
H          3.61708        2.35145       13.31890
H          4.06792        0.65404       13.15601
C          7.83736        3.89044       11.02784
H          8.61091        3.28683       11.50607
H          7.55911        4.68909       11.71619
H          8.25312        4.32518       10.12231
C          4.99240        5.83224       13.20678
H          5.62836        6.72325       13.18332
H          5.08701        5.38050       12.21168
C          2.76450        6.89727       15.18944
H          3.27914        6.26181       15.90541
H          1.69969        6.79591       15.37341
H          3.02851        7.93163       15.39213
C          2.81410        7.88642       12.28088
H          3.46002        8.72656       12.51636
H          1.78853        8.21891       12.40233
H          2.95892        7.64663       11.23273
C          2.01299        4.96146       12.85989
H          2.37806        4.45833       11.96953
H          1.01893        5.34014       12.64224
H          1.91677        4.21992       13.64532
C          7.79058        5.73827       14.97747
C          7.99649        4.48677       15.61367
C          7.08927        4.38866       16.71654
C          6.32008        5.59487       16.76018
C          6.76054        6.43258       15.68908
C          8.67897        6.35241       13.93194
H          9.37587        7.05148       14.40087
H          8.10526        6.90441       13.18715
H          9.26454        5.59291       13.41736
C          9.10313        3.51859       15.30588
H          9.31203        3.47782       14.23695
H          8.85168        2.51281       15.63937
H         10.01946        3.82561       15.81557
C          7.10556        3.35145       17.80176
H          7.70184        3.70600       18.64633
H          7.53869        2.41678       17.45177
H          6.09717        3.15456       18.16338
C          5.44064        6.00894       17.90801
H          4.72092        5.22849       18.15545
H          4.89340        6.91780       17.66937
H          6.05203        6.19822       18.79339
C          6.42292        7.88993       15.54888
H          5.34646        8.04949       15.53389
H          6.84221        8.30434       14.63497
H          6.84109        8.44339       16.39296
N          4.18273        3.89462       15.23241
N          6.05091        3.12912       13.04315
O          3.16949        3.48628       15.73418
Si         3.18842        6.37071       13.39565
W          5.79064        4.46669       14.78727
H          6.93212        0.57120       13.53222
H          5.71252        1.10054       16.28871
