76
CSD_code = FUPVOC | q = 0 | S = 0 | Stoichiometry = C33H23BF15NSi2Zr | MND = 12
F          5.19357        0.95977        1.96604
Zr         6.85231        2.37145        2.62990
Si         8.00836        5.22174        2.36062
Si         7.12868        4.03684        5.21090
F          0.50849        1.25225        2.76805
F          0.18360        3.94588        1.76674
F          4.41883        2.55190        0.19132
F          1.92190        5.57349        2.91506
N          7.10543        4.29455        3.50150
F          2.42797        1.41798        5.07758
F          0.29806       -1.39492        2.45093
F         -0.52717        4.60227       -0.71920
F          0.62073        6.53794        5.06128
C          2.08892        3.41487        3.85206
F          3.70392        3.22500       -2.30720
F          2.50245       -2.91304        1.90409
C          2.36783        3.32075        1.09990
C          1.09586        3.80188        0.80333
C          2.84554        1.23164        2.44305
C          3.19069        3.12250       -0.00228
F          4.96221       -1.63661        1.66252
C          4.44610        3.44994        2.86153
F          1.21284        4.28239       -2.79865
C          6.22397        1.22112        4.76293
C          7.27861        2.14524        4.99392
C          7.14854        3.28039        0.37904
B          2.92990        2.86839        2.56969
C          9.00502        2.58628        1.49821
C          1.49297       -0.81531        2.35365
C          1.62109        0.55961        2.52232
C          1.57941        3.96482       -1.55602
C          6.73367        0.12676        4.03045
F          0.17438        4.93659        7.23448
C          2.61300       -1.59673        2.06969
C          8.42705        1.45503        0.87193
C          8.22709        3.73411        1.18309
C          2.84082        3.43678       -1.30635
C          7.27775        1.88779        0.17572
C          8.42517        1.61968        4.33535
C          1.66229        4.73683        3.93408
C          1.01280        5.26004        5.04476
C          3.91103        0.40902        2.13905
C          1.91111        2.66551        5.00777
C          0.70084        4.13275       -0.49198
F          1.12462        2.36804        7.21948
C          8.09071        0.37547        3.75492
C          3.84175       -0.96413        1.95104
C          1.26749        3.14713        6.14112
C          6.92554        6.56558        1.53767
C          5.48049        4.52111        6.06415
C          9.68542        5.94816        2.90020
C          8.58497        4.76543        6.19837
C          0.79472        4.45309        6.15559
H          6.21763       -0.80367        3.83348
H          9.96629        2.60358        2.00172
H          6.69057        1.28578       -0.50624
H          5.24454        1.24428        5.23082
H          8.87419        0.47043        0.79005
H          4.87430        2.88550        3.69966
H          6.45416        3.93318       -0.13570
H          8.78529       -0.33691        3.32561
H          4.37798        4.48932        3.18679
H          5.13885        3.45843        2.00389
H          9.42341        2.03668        4.41348
H          7.36533        6.90725        0.60724
H          5.92194        6.20819        1.32421
H          6.83249        7.42671        2.18955
H          4.70448        3.76886        5.95878
H          5.09728        5.45158        5.65900
H          5.64124        4.67227        7.12542
H         10.35581        5.18664        3.28409
H         10.18201        6.44270        2.07295
H          9.53695        6.68255        3.68283
H          9.54216        4.52782        5.74872
H          8.50000        5.84498        6.24188
H          8.59227        4.39316        7.21673
