69
CSD_code = FUWZII | q = 0 | S = 0 | Stoichiometry = C23H38Cl2N2S2SiTi | MND = 8
Ti        -0.42319       11.27715        6.93746
Cl         1.56399       12.17060        6.90802
Cl        -0.65082       10.74032        9.03886
S          0.83239       15.34276       10.05327
S         -4.89338       12.05143       10.89731
Si        -1.91748        9.44045        5.35844
N         -0.38466        9.57473        6.16052
N         -2.52173       13.95143        8.14181
C         -0.46017       14.53677        5.66055
H         -0.45572       15.43325        6.26158
C         -1.26641       12.28620        5.11290
C         -2.18264       11.30599        5.61679
C         -1.23789       13.41882        6.01754
C         -2.12173       13.10940        7.11633
C          0.73313        8.65317        6.16276
C         -2.65414       11.82167        6.85425
H         -3.40421       11.31934        7.45082
C          0.30970       13.38158        3.67291
H          0.92894       13.39659        2.78813
C         -0.46632       12.28651        3.95347
H         -0.49992       11.43848        3.28195
C         -1.57684       14.85411        8.76997
H         -1.23440       15.58932        8.03777
H         -2.10563       15.40112        9.55329
C          0.29764       14.50480        4.51627
H          0.89690       15.36347        4.25258
C          1.44458        8.68594        7.52785
H          1.84314        9.68370        7.73802
H          0.74385        8.40741        8.31728
H          2.27213        7.97918        7.53335
C         -0.36609       14.14779        9.38489
H          0.15761       13.53172        8.64521
H         -0.66049       13.51820       10.22450
C          0.25849        7.21727        5.90449
H         -0.46899        6.93012        6.65944
H         -0.20301        7.14105        4.92440
H          1.10106        6.53169        5.94780
C         -3.68200       13.59819        8.93072
H         -4.15397       14.52752        9.26680
H         -4.39639       13.09197        8.27767
C          1.81043       15.70924        8.54633
H          1.98110       14.76190        8.03378
H          1.22159       16.37215        7.91072
C          1.71827        9.07530        5.05707
H          1.24349        8.97897        4.08279
H          2.01250       10.11698        5.19903
H          2.60813        8.45100        5.07829
C         -5.16291       10.55332        9.88656
H         -6.16480       10.22728       10.16463
H         -5.17398       10.84918        8.83710
C         -3.37529       12.72808       10.15321
H         -2.91557       13.31923       10.94416
H         -2.71407       11.89995        9.89958
C         -3.19700        8.44784        6.38040
H         -3.01799        8.57857        7.44490
H         -4.21091        8.76834        6.16369
H         -3.13893        7.38717        6.16064
C         -1.98685        8.88550        3.52928
H         -2.77540        9.40828        2.99839
H         -1.05605        9.06876        3.00302
H         -2.19882        7.82402        3.46311
C         -4.14709        9.45976       10.15830
H         -4.42356        8.56008        9.61099
H         -3.14456        9.75588        9.85185
H         -4.12654        9.22742       11.22029
C          3.12290       16.36345        8.93110
H          3.70630       16.57619        8.03760
H          2.94234       17.29441        9.46385
H          3.69711       15.70346        9.57646
