57
CSD_code = GAGVOA | q = 0 | S = 0 | Stoichiometry = C12H36CrI2N2Si4 | MND = 4
C         10.69874        4.00530        4.39063
H         10.39872        3.54432        3.45575
H         11.69184        3.63531        4.62447
H         10.78036        5.07650        4.22673
C          9.44843        1.71360        6.20178
H          8.78660        1.48666        7.03478
H         10.43981        1.35969        6.46936
H          9.11782        1.12527        5.35078
C         10.34010        4.36904        7.39497
H         10.26864        5.44981        7.42003
H         11.39336        4.11052        7.39201
H          9.91510        3.98128        8.31299
C          7.22071        5.10642        8.29306
H          7.14088        4.03497        8.45562
H          6.36240        5.57328        8.76709
H          8.10742        5.45853        8.80695
C          8.20002        7.18248        6.11019
H          9.26916        7.02737        6.00879
H          8.04178        7.86180        6.94101
H          7.85262        7.68127        5.21018
C          5.42498        5.81160        5.92894
H          5.26744        5.73290        4.85591
H          5.09415        6.79914        6.23859
H          4.77694        5.09006        6.42093
N          7.92585        4.24029        5.48122
Si         9.53604        3.59099        5.85296
Si         7.24983        5.55698        6.43696
Cr         6.80211        3.49573        4.24655
I          7.92474        1.86008        2.56245
N          5.67756        4.24073        3.01295
Si         4.06752        3.59107        2.64119
C          2.90485        4.00544        4.10353
H          3.20525        3.54511        5.03862
H          1.91194        3.63475        3.87000
H          2.82264        5.07667        4.26687
C          4.15514        1.71367        2.29236
H          4.81661        1.48679        1.45908
H          3.16367        1.35966        2.02525
H          4.48617        1.12534        3.14319
C          3.26348        4.36901        1.09915
H          3.33360        5.44978        1.07480
H          2.21061        4.10928        1.10127
H          3.68940        3.98246        0.18118
Si         6.35377        5.55718        2.05711
C          6.38299        5.10659        0.20104
H          6.46220        4.03514        0.03840
H          7.24166        5.57293       -0.27276
H          5.49663        5.45930       -0.31300
C          5.40359        7.18262        2.38397
H          4.33445        7.02745        2.48539
H          5.56184        7.86187        1.55311
H          5.75104        7.68138        3.28398
C          8.17862        5.81160        2.56526
H          8.33602        5.73329        3.63834
H          8.50970        6.79893        2.25524
H          8.82659        5.08972        2.07367
I          5.67968        1.86003        5.93301
