73
CSD_code = GAHJEG | q = 1 | S = 0 | Stoichiometry = C18H47ClFeP5Si(1+) | MND = 6
Fe         5.24156        6.68950       24.62417
Si         1.98983        5.40840       25.69996
P          5.01162        4.91050       25.82039
P          3.85432        7.84586       25.81265
P          3.65024        6.13182       23.25174
P          7.01280        7.72649       25.55651
P          7.00346        5.97309       23.39120
Cl         5.53595        8.31887       23.21942
C          3.43143        4.68851       26.71435
H          3.50893        5.21793       27.66438
H          3.32311        3.62572       26.93568
C          2.12096        7.28627       26.00707
H          1.50087        7.84706       25.30833
H          1.80383        7.55255       27.01702
C          2.34596        5.01082       23.86941
H          2.69490        3.98354       23.77267
H          1.47122        5.13361       23.22891
C          0.29617        4.71485       26.25081
C         -0.83012        5.50024       25.58548
H         -1.79537        5.09375       25.88090
H         -0.76192        5.44402       24.50184
H         -0.80296        6.54621       25.88014
C          0.15298        4.82870       27.76525
H         -0.81332        4.43945       28.07982
H          0.21596        5.86466       28.08864
H          0.92597        4.25932       28.27501
C          0.18229        3.24669       25.85136
H         -0.77519        2.84378       26.17556
H          0.96730        2.65306       26.31368
H          0.24774        3.12787       24.77286
C          6.13759        4.46418       27.19221
H          5.78343        3.53226       27.63637
H          6.14166        5.24795       27.94760
H          7.15055        4.31898       26.82104
C          5.09890        3.34763       24.86087
H          4.33020        2.65168       25.19490
H          6.07382        2.88848       25.01361
H          4.96904        3.55283       23.80071
C          3.60916        9.59748       25.38084
H          2.86118       10.02012       26.05397
H          3.27911        9.69264       24.34834
H          4.55033       10.13239       25.49304
C          4.37942        8.04017       27.55067
H          3.63764        8.61579       28.10569
H          5.33073        8.57326       27.55806
H          4.52022        7.06890       28.01987
C          2.61760        7.45102       22.53205
H          1.90997        6.98547       21.84424
H          3.24697        8.14930       21.98361
H          2.07224        7.98835       23.30312
C          4.14848        5.32747       21.69187
H          3.26093        4.94186       21.18798
H          4.85311        4.51575       21.86983
H          4.62136        6.08215       21.06419
C          8.13475        7.20163       24.18777
H          9.07422        6.76522       24.53686
H          8.33386        8.03638       23.50928
C          8.01378        7.25750       27.02046
H          8.92850        7.85201       27.01326
H          8.27411        6.20308       26.97954
H          7.46857        7.45523       27.94203
C          7.26830        9.53664       25.61803
H          8.34573        9.71091       25.59365
H          6.86427        9.95206       26.54083
H          6.80599       10.02052       24.76057
C          7.97032        4.43495       23.64506
H          8.96938        4.57996       23.23106
H          7.49349        3.60160       23.13123
H          8.04897        4.20642       24.70623
C          7.35442        6.21343       21.61301
H          8.43612        6.32201       21.51323
H          6.86521        7.10836       21.23564
H          7.03118        5.34404       21.04300
