94
CSD_code = GECSIT | q = 0 | S = 0 | Stoichiometry = C37H45FeN5O4Si2 | MND = 5
Fe        12.79443        8.19155        8.86165
Si         8.02123        7.16677        3.77324
O          9.16472        7.96307        4.66682
O         15.15884        8.19552        7.11598
N         10.41486        8.44934        6.58028
N         11.09833        7.81543        7.55362
N         12.50064        6.32343        9.06869
C          9.90606        7.54526        5.68823
C         10.26525        6.29062        6.10588
C         11.02565        6.49889        7.27668
C         11.70041        5.63280        8.19250
C         11.53283        4.25939        8.26852
C         12.13736        3.54991        9.29640
C         10.20061        9.83541        6.59538
C         10.18772       10.55983        5.40919
C          9.94901       11.92172        5.44414
C          9.73691       12.56421        6.65199
C          9.76260       11.84027        7.83336
C          9.98846       10.47793        7.81059
C          6.74934        6.35503        4.93755
C          8.83956        5.83745        2.67719
C          7.28563        8.61086        2.74614
C          8.33457        9.17993        1.78776
C          6.10137        8.10102        1.92463
C          6.79830        9.73780        3.66104
C         14.23570        8.15171        7.81121
H         10.03253        5.36474        5.62540
H         10.91776        3.76100        7.53578
H         12.03154        2.47865        9.36360
H         10.37400       10.05974        4.47242
H          9.93952       12.48444        4.52239
H          9.55912       13.62883        6.67357
H          9.60587       12.33925        8.77762
H         10.01684        9.90119        8.72313
H          6.00766        5.78071        4.39291
H          6.22281        7.09772        5.53027
H          7.24188        5.68009        5.63197
H          8.19381        5.53843        1.85813
H          9.76944        6.20091        2.24870
H          9.07262        4.94110        3.24476
H          7.91734       10.01134        1.22029
H          9.19867        9.54360        2.33730
H          8.66819        8.42170        1.08328
H          5.67667        8.90807        1.32888
H          5.32060        7.71024        2.57217
H          6.41085        7.30824        1.24801
H          6.40495       10.56228        3.06702
H          7.61169       10.11652        4.27508
H          6.00584        9.38795        4.31873
Si        16.49422        7.17899       14.73039
O         15.19833        7.84721       13.94587
N         14.05707        8.39410       11.99269
N         13.45730        7.80603       10.93854
C         14.54981        7.45550       12.85381
C         14.26477        6.21867       12.33843
C         13.57573        6.47839       11.13378
C         12.98165        5.62817       10.14753
C         12.83106        4.25635       10.26999
C         14.22615        9.78189       12.12698
C         13.92811       10.40138       13.33530
C         14.13910       11.76109       13.47345
C         14.63166       12.50191       12.41136
C         14.92453       11.87995       11.20844
C         14.73338       10.51846       11.06404
C         17.77665        6.57626       13.45836
C         15.91037        5.71859       15.80924
C         17.10163        8.67296       15.77083
C         16.00803        9.13691       16.73570
C         18.33226        8.26961       16.58302
C         17.47620        9.84720       14.86196
H         14.51971        5.27188       12.76404
H         13.24638        3.75312       11.12879
H         13.53398        9.81820       14.15319
H         13.91265       12.24448       14.41227
H         14.78899       13.56415       12.52303
H         15.30973       12.45417       10.38006
H         14.97476       10.01071       10.14192
H         18.65114        6.14313       13.93176
H         18.11281        7.38908       12.82078
H         17.34545        5.81793       12.81084
H         16.68255        5.39674       16.49996
H         15.03459        5.98551       16.39400
H         15.64401        4.85920       15.20049
H         16.34899        9.99954       17.30750
H         15.11445        9.42272       16.18758
H         15.74764        8.34682       17.43610
H         18.68699        9.11019       17.17819
H         19.14056        7.95220       15.92911
H         18.09917        7.45072       17.25912
H         17.79483       10.70037       15.46018
H         16.62618       10.15441       14.25719
H         18.29313        9.57827       14.19644
O         12.93262       11.07158        8.49839
C         12.85963        9.93188        8.70492
