142
CSD_code = GEDTUG | q = 0 | S = 0 | Stoichiometry = C39H81ClO12Si8Ti | MND = 8
Ti        -1.31001        2.59322        5.94004
Cl        -1.29958        0.96516        7.39354
Si        -2.18642        5.37404        5.90504
Si         1.74209        3.57177        6.34662
Si         2.02113        5.05899        3.71231
Si        -0.51282        2.10188        1.52374
Si        -1.07135        0.63405        3.99635
Si         1.91992        1.02813        4.80599
Si         2.49633        2.38048        2.19476
Si        -1.03785        4.77562        3.09399
O         -1.61441        4.44509        4.58039
O          0.16881        3.37974        6.47164
O         -2.10299        1.68732        4.59295
O          2.04110        4.80220        5.30245
O          2.46218        2.22605        5.74474
O          2.67426        3.84617        2.86160
O          0.49235        5.29095        3.21142
O          1.08863        2.30825        1.39350
O         -1.16598        3.41636        2.22365
O         -0.86039        0.77870        2.38377
O          0.31137        1.19543        4.74668
O          2.54546        1.21276        3.31712
C         -2.65531        3.88347        6.96209
C         -3.85964        3.07547        6.69225
C         -4.22859        2.45408        7.86161
C         -3.33705        2.85953        8.91036
C         -2.41175        3.72972        8.39372
C         -1.28676        4.39900        9.12421
H         -0.40829        4.45383        8.48144
H         -1.02731        3.83339       10.01586
H         -1.56514        5.41057        9.42703
C         -3.40673        2.32721       10.30434
H         -2.89837        2.98701       11.00167
H         -2.93012        1.34736       10.33976
H         -4.44114        2.21653       10.62178
C         -5.34962        1.48620        8.06431
H         -4.95999        0.54962        8.45981
H         -5.86409        1.28306        7.12996
H         -6.07371        1.88081        8.77751
C         -4.62311        3.07528        5.39545
H         -3.97727        3.34604        4.55988
H         -5.45155        3.78621        5.44855
H         -5.04107        2.08976        5.19319
C         -0.78902        6.56934        6.41552
H         -0.70240        7.38241        5.70001
H          0.16424        6.04978        6.43807
H         -0.96339        7.00719        7.39218
C         -3.70190        6.43528        5.39136
H         -4.28919        5.97088        4.60773
H         -3.40704        7.42266        5.05128
H         -4.35424        6.57447        6.24706
C          2.60762        3.96961        7.99084
H          2.52733        5.03716        8.20056
H          2.08672        3.45317        8.79894
C          4.08788        3.57314        8.03220
C          4.66098        3.81404        9.42843
H          4.11144        3.24349       10.17315
H          4.59630        4.86874        9.68785
H          5.70587        3.51447        9.46961
C          4.88900        4.34456        6.98807
H          4.50976        4.13275        5.99335
H          5.93983        4.06493        7.03032
H          4.80745        5.41491        7.16581
C          3.07269        6.60139        3.39721
H          4.10512        6.34993        3.64355
H          3.06378        6.85423        2.33719
C          2.66881        7.84009        4.20583
H          2.50460        7.53269        5.24239
C          1.37555        8.43999        3.66164
H          1.04106        9.26460        4.28812
H          0.60003        7.68235        3.62357
H          1.53575        8.81942        2.65435
C          3.78368        8.88540        4.17860
H          3.99931        9.18136        3.15415
H          4.69471        8.48874        4.61968
H          3.49069        9.77183        4.73705
C         -1.19509        1.76721       -0.20964
H         -0.47969        1.11794       -0.71615
H         -2.12176        1.19858       -0.12914
C         -1.44805        2.98847       -1.09502
H         -2.25544        3.56986       -0.64225
C         -1.89949        2.54919       -2.48819
H         -2.79263        1.93223       -2.42582
H         -1.11698        1.97090       -2.97424
H         -2.12288        3.41382       -3.10949
C         -0.20612        3.86797       -1.19361
H         -0.39219        4.72113       -1.84367
H          0.62423        3.29561       -1.59970
H          0.08177        4.22870       -0.21060
C         -1.34927       -1.20378        4.39842
H         -0.83003       -1.81540        3.65931
H         -0.91205       -1.42824        5.37378
C         -2.82538       -1.62544        4.43828
H         -3.30363       -1.29845        3.50937
C         -3.54373       -0.97607        5.61816
H         -4.59018       -1.27387        5.63575
H         -3.48501        0.10911        5.55254
H         -3.07868       -1.27570        6.55463
C         -2.93249       -3.14778        4.53428
H         -2.45719       -3.62514        3.68051
H         -3.97514       -3.45599        4.56140
H         -2.44769       -3.50022        5.44168
C          2.49948       -0.65251        5.46894
H          1.68789       -1.37919        5.40853
H          3.29393       -1.01963        4.81864
C          3.01996       -0.62975        6.91274
C          3.60377       -1.99318        7.28293
H          3.99131       -1.97856        8.29893
H          4.41515       -2.26215        6.61055
H          2.83619       -2.76137        7.22084
C          1.91381       -0.24732        7.89049
H          1.51833        0.73922        7.66078
H          2.29445       -0.23624        8.90946
H          1.09023       -0.95545        7.83959
C          3.92071        2.12887        0.97822
H          4.09145        1.06414        0.81857
H          3.63676        2.54596        0.01222
C          5.23672        2.77592        1.42431
H          5.04972        3.84020        1.59309
C          5.73138        2.16134        2.72978
H          4.99183        2.29484        3.51319
H          6.66355        2.62770        3.04243
H          5.90380        1.09505        2.60143
C          6.29797        2.62936        0.33406
H          5.96487        3.09004       -0.59287
H          6.49865        1.57769        0.14113
H          7.22772        3.10509        0.63802
C         -1.95746        6.21447        2.24644
H         -2.46851        6.81882        2.99552
H         -1.20598        6.86302        1.79360
C         -2.96982        5.84018        1.15759
H         -2.42907        5.31108        0.37040
C         -4.06373        4.92155        1.69223
H         -4.73276        4.62087        0.88843
H         -4.65310        5.43370        2.44980
H         -3.62498        4.02878        2.12868
C         -3.58705        7.10254        0.55555
H         -2.81674        7.74752        0.14024
H         -4.12854        7.66109        1.31621
H         -4.28270        6.84502       -0.23981
H          4.15892        2.50652        7.80330
H          3.81458        0.11949        6.97476
