89
CSD_code = GEFTIV | q = 0 | S = 0 | Stoichiometry = C39H44ClFeNP2Si | MND = 4
Fe         2.64791        2.12954        6.11081
Cl         1.92362        0.52021        7.05233
P          1.87302        4.07327        5.61532
P          3.90142        3.01959        7.69817
N          3.98923        2.65108        4.68956
Si         4.67108        4.14972        5.03896
C          4.33041        1.61081        3.84084
C          5.17909        0.57008        4.27197
C          5.54462       -0.42418        3.37932
H          6.21556       -1.20834        3.69724
C          5.07772       -0.42439        2.07867
H          5.37954       -1.20315        1.39334
C          4.22345        0.57838        1.65989
H          3.86274        0.57341        0.64200
C          3.83335        1.59004        2.52050
C          5.72730        0.56550        5.67760
H          5.14491        1.29140        6.26643
C          5.58538       -0.79753        6.35168
H          4.54401       -1.11224        6.34665
H          5.92476       -0.73580        7.38355
H          6.17795       -1.55557        5.84569
C          7.18723        1.02130        5.67393
H          7.80324        0.31709        5.11838
H          7.56567        1.08345        6.69305
H          7.27578        1.99904        5.20483
C          2.91275        2.68497        2.04433
H          2.56994        3.22854        2.93274
C          1.68839        2.13046        1.31696
H          0.97062        2.92801        1.13547
H          1.20410        1.36304        1.91592
H          1.96312        1.69778        0.35800
C          3.66721        3.66541        1.14481
H          4.03948        3.15793        0.25719
H          4.51245        4.09090        1.67843
H          3.00728        4.47196        0.83031
C          6.09942        4.73678        3.93871
H          6.47623        3.90518        3.35822
H          6.91670        5.12943        4.52987
H          5.78208        5.50959        3.25114
C          5.18703        4.06061        6.89726
H          6.13083        3.52236        6.98598
H          5.29365        5.01716        7.40387
C          3.10640        5.28789        5.03446
H          3.16731        6.13039        5.71939
H          2.85608        5.64700        4.03814
C          4.89687        2.10178        8.94381
C          4.63862        0.76402        9.21187
H          3.85508        0.25596        8.66917
C          5.37734        0.08756       10.16833
H          5.17109       -0.95398       10.36876
C          6.37828        0.74281       10.86378
H          6.95840        0.21476       11.60647
C          6.63144        2.08198       10.61034
H          7.40520        2.59882       11.15998
C          5.89309        2.76014        9.65960
H          6.08377        3.80804        9.47520
C          3.08050        4.12257        8.90433
C          2.38897        3.48953        9.93626
H          2.39213        2.40831        9.98194
C          1.70837        4.22688       10.88344
H          1.18292        3.72559       11.68314
C          1.69656        5.61084       10.80607
H          1.16456        6.19124       11.54520
C          2.36325        6.24684        9.77462
H          2.34792        7.32516        9.70525
C          3.04873        5.50859        8.82574
H          3.55763        6.02391        8.02410
C          0.79018        4.94976        6.80462
C          0.11388        4.14965        7.71860
H          0.31599        3.08452        7.72787
C         -0.78286        4.71036        8.60687
H         -1.30047        4.08601        9.31996
C         -1.01496        6.07600        8.58193
H         -1.71337        6.51840        9.27693
C         -0.35368        6.87502        7.66466
H         -0.54026        7.93929        7.64247
C          0.54368        6.31562        6.77306
H          1.05317        6.94554        6.05761
C          0.57915        3.94234        4.32675
C          0.12064        5.00533        3.55866
H          0.58873        5.97622        3.63945
C         -0.93894        4.81984        2.68895
H         -1.29094        5.64565        2.08725
C         -1.55601        3.58288        2.59307
H         -2.38737        3.44670        1.91724
C         -1.10588        2.52053        3.36063
H         -1.58571        1.55590        3.28324
C         -0.04016        2.70073        4.22159
H          0.33634        1.87529        4.82304
