119
CSD_code = GEMHEM | q = 0 | S = 0 | Stoichiometry = C31H76N5Si6Y | MND = 4
Y         -7.06154        9.28309        4.77784
Si        -5.87243        4.52706        3.20483
Si        -8.53807        4.36113        4.88668
Si        -4.70831       10.51942        2.53939
Si        -7.31592       12.00247        2.77497
Si        -6.66864       11.23863        7.51784
Si        -9.36635        9.92360        7.29740
N         -7.82602        7.45724        3.62841
N         -6.40643        7.14960        5.31689
N         -7.18762        5.20931        4.14857
N         -6.27880       10.70075        3.22533
N         -7.77892       10.21117        6.69066
C         -7.13940        6.59514        4.36333
C         -8.50630        7.06168        2.40856
H         -8.32035        5.99816        2.20454
C         -7.96477        7.90279        1.24521
H         -6.89817        7.71131        1.13208
H         -8.08263        8.96165        1.50009
C         -8.69100        7.58685       -0.05868
H         -8.29700        8.21608       -0.85954
H         -8.50770        6.54463       -0.33277
C        -10.19215        7.81058        0.09032
H        -10.70319        7.55906       -0.84170
H        -10.38192        8.86466        0.30413
C        -10.73632        6.95728        1.23140
H        -11.80915        7.12727        1.34734
H        -10.59034        5.90074        0.99200
C        -10.01800        7.29290        2.53488
H        -10.41133        6.68847        3.35395
H        -10.18911        8.34534        2.77918
C         -5.73940        6.35996        6.33655
H         -5.86559        5.29005        6.12706
C         -6.35437        6.68226        7.70514
H         -7.40296        6.38437        7.69937
H         -6.31579        7.76721        7.85341
C         -5.62398        5.96238        8.83482
H         -6.06944        6.23907        9.79274
H         -5.74150        4.88241        8.71232
C         -4.13890        6.30759        8.83006
H         -4.01439        7.37740        9.01106
H         -3.62654        5.76865        9.63011
C         -3.52621        5.94790        7.48072
H         -3.61450        4.87060        7.31951
H         -2.46371        6.20147        7.47198
C         -4.24284        6.69488        6.36035
H         -3.79952        6.44958        5.39279
H         -4.13258        7.77202        6.51846
C         -6.59980        3.32224        1.91762
H         -7.41055        3.75830        1.34373
H         -6.97355        2.41972        2.38862
H         -5.82620        3.02333        1.21780
C         -4.63319        3.53109        4.26772
H         -3.98282        4.16938        4.85669
H         -3.99914        2.93231        3.62047
H         -5.13233        2.85132        4.94971
C         -4.93707        5.92516        2.31048
H         -5.18796        6.89203        2.73735
H         -3.86174        5.79544        2.38855
H         -5.18156        5.95332        1.25269
C         -9.71170        3.60381        3.58303
H         -9.23972        2.79194        3.04129
H        -10.05659        4.32953        2.85457
H        -10.58850        3.19431        4.07579
C         -7.86922        2.92249        5.94859
H         -7.36763        2.17882        5.33845
H         -7.17221        3.25521        6.71134
H         -8.69100        2.42433        6.45285
C         -9.52929        5.55152        5.99739
H        -10.55258        5.66060        5.65077
H         -9.57697        5.19109        7.02093
H         -9.07877        6.53977        6.00926
C         -3.72962        9.30789        3.66233
H         -3.05389        8.69037        3.07909
H         -3.13090        9.83561        4.39814
H         -4.41759        8.64271        4.19376
C         -3.70219       12.14504        2.44279
H         -3.71724       12.68394        3.38393
H         -4.11299       12.80094        1.68345
H         -2.66476       11.95508        2.18655
C         -4.68373        9.78468        0.76533
H         -4.83612        8.71051        0.77075
H         -5.46000       10.22382        0.14962
H         -3.73132        9.97534        0.28031
C         -6.76560       13.71685        3.43205
H         -6.36865       13.64146        4.43908
H         -5.98975       14.14249        2.80570
H         -7.59166       14.42097        3.45282
C         -7.57893       12.20804        0.88734
H         -8.29552       12.99411        0.67165
H         -6.64529       12.47475        0.40457
H         -7.93957       11.29629        0.42213
C         -9.01580       11.60164        3.56845
H         -9.37906       10.62459        3.24443
H         -9.76933       12.33340        3.29108
H         -8.93925       11.60765        4.65662
C         -6.38659       10.79325        9.36113
H         -5.59183       11.39066        9.79627
H         -7.28753       10.97980        9.93523
H         -6.12489        9.74835        9.49343
C         -4.99658       11.03592        6.60047
H         -5.08348       11.36960        5.56543
H         -4.67031        9.99466        6.61000
H         -4.21082       11.62321        7.06723
C         -7.12221       13.10005        7.47458
H         -7.87197       13.33512        8.22148
H         -7.52419       13.38350        6.50742
H         -6.25761       13.72648        7.67116
C        -10.27802       11.49475        7.90108
H        -11.32805       11.29558        8.09003
H         -9.84147       11.85608        8.82537
H        -10.21898       12.29820        7.17487
C        -10.40319        9.18250        5.86106
H        -11.11219        8.44719        6.22764
H         -9.75070        8.68571        5.13572
H        -10.97110        9.94718        5.34027
C         -9.45345        8.68063        8.75704
H         -9.17989        7.67740        8.44917
H         -8.78284        8.97178        9.55720
H        -10.45691        8.63524        9.16922
