54
CSD_code = GESWUW | q = 0 | S = 0 | Stoichiometry = C19H28FeNO2PSi2 | MND = 8
Fe         8.73157       15.43860       -0.10968
P          9.36669       16.64082        1.61776
Si         8.37678       15.27888        4.20551
Si         7.40296       18.03657        3.03515
N          8.43257       16.59423        3.02481
C          7.38303       14.67532        0.68296
O          6.53426       14.08862        1.19188
C          9.56814       13.93358        0.17168
O         10.02635       12.88292        0.26858
C          9.48611       15.46643       -2.31748
C          9.93700       16.72600       -1.83283
C          8.80773       17.53545       -1.61837
C          7.65795       16.76426       -1.86804
C          8.07766       15.49169       -2.34177
C         11.02717       16.24339        2.22285
C         11.95988       15.64544        1.37561
C         13.26333       15.45170        1.78870
C         13.66502       15.87475        3.04657
C         12.75790       16.51114        3.87961
C         11.45390       16.70542        3.46803
C          6.57462       14.68985        4.41835
C          9.42357       13.80763        3.62369
C          9.03046       15.91749        5.88619
C          6.17696       18.05187        4.48823
C          6.43973       18.09054        1.39174
C          8.57340       19.53782        3.18786
H         10.11238       14.68997       -2.72746
H         10.96303       17.05399       -1.79669
H          8.82436       18.56475       -1.30145
H          6.64380       17.12855       -1.87191
H          7.43780       14.73477       -2.76449
H         11.64231       15.31934        0.39198
H         13.97183       14.96918        1.13062
H         14.68309       15.71781        3.37118
H         13.07392       16.86149        4.85209
H         10.74667       17.21589        4.10327
H          5.99224       14.82112        3.51352
H          6.07021       15.21844        5.21914
H          6.55593       13.63326        4.66625
H          9.11837       13.49358        2.63118
H          9.29309       12.96333        4.29308
H         10.48217       14.03882        3.58652
H          8.52447       15.41107        6.70182
H          8.86728       16.98344        6.00876
H         10.09343       15.73010        5.99964
H          6.64222       17.77591        5.42669
H          5.34469       17.37963        4.31773
H          5.77090       19.05152        4.60171
H          7.02589       18.56282        0.61038
H          5.51097       18.64333        1.48775
H          6.20124       17.08443        1.05529
H          8.06363       20.46287        2.93907
H          9.42410       19.43224        2.51944
H          8.95984       19.64033        4.19743
