23
CSD_code = GIGJIQ | q = 0 | S = 0 | Stoichiometry = C7H10Cl3FSiTi | MND = 8
Ti         1.77480        7.80811        2.27147
Cl         0.80894        9.09095        3.69417
Cl         0.49410        8.34564        0.60924
Si         3.88015        7.55809        4.94453
Cl         0.87073        5.90430        2.63508
F          2.38954        6.85908        5.06928
C          3.88111        7.84952        3.08462
C          3.53364        8.81305        1.02798
H          3.45122        9.55063        0.23974
C          3.82327        9.16436        5.94757
H          4.71672        9.76423        5.80869
H          3.73264        8.95097        7.00820
H          2.96147        9.76116        5.65632
C          3.60552        7.41367        0.84314
H          3.59908        6.90039       -0.11070
C          3.82361        6.82004        2.10457
H          4.02482        5.76980        2.28215
C          3.69202        9.08218        2.40157
H          3.77091       10.06657        2.84786
C          5.12249        6.24135        5.50773
H          6.14650        6.55203        5.33191
H          4.96367        5.30077        4.98794
H          5.01325        6.04942        6.57026
