68
CSD_code = GIJJIU | q = 0 | S = 0 | Stoichiometry = C21H41BNPSi2Ti | MND = 13
Ti        11.97336        8.74924       12.14628
P         10.58104       10.63669       11.12376
Si        11.29719        5.83027       14.39589
Si         8.35403        8.67891       13.42860
N         10.19692       12.89827        9.18347
C         13.33365        7.23066       10.97753
C         12.02906        6.70241       10.92384
C         11.23755        7.57448       10.15502
C         12.06644        8.62399        9.70357
C         13.35542        8.41272       10.21217
C         13.32413        8.86041       14.09609
C         14.04239        9.34602       12.98283
C         13.43897       10.54611       12.56700
C         12.37123       10.81995       13.45005
C         12.30187        9.78513       14.38935
C          8.93555       13.16584        9.87325
C         10.76038       14.16742        8.71716
C          9.94298       12.04493        8.02218
C         13.01842        5.05370       14.04987
C         11.19948        6.30663       16.24990
C          9.99686        4.46715       14.04205
C          7.41303        7.29337       14.35519
C          7.32422        9.06312       11.85064
C          8.36889       10.22500       14.56715
C         10.99514        7.35291       13.35881
C         10.11188        8.21842       13.01797
B         11.29186       12.19706       10.19505
H         14.19496        6.73081       11.40262
H         11.71697        5.73708       11.29855
H         10.20564        7.40371        9.86634
H         11.79625        9.37518        8.97033
H         14.23202        8.99951        9.96738
H         13.61358        8.02708       14.72153
H         14.97979        8.94610       12.61495
H         13.80335       11.21807       11.79963
H         11.78516       11.73202       13.46533
H         11.61769        9.72805       15.22685
H          9.12832       13.76175       10.76290
H          8.47797       12.22632       10.17853
H          8.24318       13.70519        9.22162
H         10.08761       14.65196        8.00524
H         11.72000       13.98578        8.23890
H         10.92320       14.82947        9.56416
H          9.21343       12.50690        7.35234
H          9.56310       11.07942        8.35174
H         10.87151       11.88192        7.47957
H         11.57277       13.01956       11.00902
H         12.22004       11.90186        9.51127
H          9.59235       10.16554       10.24624
H          9.63225       11.25639       11.94681
H         13.77427        5.81385       13.87401
H         12.99444        4.41200       13.17362
H         13.35129        4.44619       14.88726
H         11.96687        7.02676       16.51626
H         11.32414        5.43756       16.88919
H         10.23899        6.75503       16.48409
H          9.87503        4.30474       12.97534
H          9.02575        4.73326       14.44373
H         10.29189        3.52163       14.48793
H          7.95887        6.97853       15.23799
H          7.27835        6.42230       13.72271
H          6.42972        7.62643       14.67444
H          7.64947        8.44849       11.01599
H          7.41794       10.10375       11.55316
H          6.26899        8.86424       12.01269
H          8.58302        9.94296       15.59341
H          7.41454       10.74447       14.56152
H          9.13688       10.92951       14.25905
