59
CSD_code = GIPKIA | q = 0 | S = 0 | Stoichiometry = C19H33N5SiTi | MND = 8
Ti         1.85000        3.07724        2.70712
Si         4.15863        3.40876        4.54756
N          2.40653        3.30791        4.55313
N          2.32548        3.47061        6.84487
N         -0.42603        3.08125        6.78670
N          0.30943        4.07441        2.60002
N          1.21919        1.34411        2.69483
C          4.10279        3.55732        2.65226
C          3.41740        4.66787        2.06186
C          2.80487        4.23538        0.86762
C          3.10748        2.84839        0.69881
C          3.90482        2.44114        1.79240
C          3.54733        6.09282        2.52175
H          2.81090        6.73655        2.04317
H          4.53853        6.47206        2.25894
H          3.43727        6.18072        3.60132
C          2.13239        5.08208       -0.17750
H          1.83184        6.04774        0.22577
H          1.24475        4.58606       -0.57524
H          2.81533        5.26441       -1.01178
C          2.89175        2.08043       -0.57649
H          3.68458        2.32459       -1.29025
H          1.94132        2.33710       -1.04587
H          2.91676        1.00604       -0.40339
C          4.57096        1.09940        1.91833
H          3.87533        0.32525        2.24930
H          5.38950        1.15590        2.63139
H          4.98111        0.79282        0.95430
C          4.93238        4.89677        5.47310
H          4.17147        5.58744        5.82057
H          5.63350        5.44413        4.85218
H          5.46729        4.54476        6.34729
C          4.93129        1.81611        5.27773
H          4.78631        1.81899        6.35304
H          5.99832        1.76628        5.08887
H          4.47064        0.91552        4.88404
C          1.68380        3.28787        5.67512
C          1.59642        3.47249        7.95006
H          2.14216        3.62227        8.87374
C          0.22630        3.29165        7.93408
H         -0.37301        3.29936        8.83260
C          0.27723        3.07368        5.68115
H         -0.24784        2.88157        4.74628
C          0.28548        5.38909        3.19622
H          0.24529        6.18172        2.42734
H          1.16872        5.53835        3.82295
H         -0.60760        5.51211        3.83186
C         -0.92379        3.82167        1.89923
H         -1.79123        3.91986        2.57413
H         -0.92982        2.81433        1.48053
H         -1.06964        4.54780        1.07839
C          1.31954        0.42544        3.80428
H          0.32044        0.11172        4.15288
H          1.84817        0.88818        4.63995
H          1.86051       -0.49263        3.51116
C          0.63047        0.68087        1.55833
H          1.22125       -0.20650        1.26451
H          0.57543        1.35947        0.70258
H         -0.38823        0.32137        1.78895
