83
CSD_code = GISMIE | q = 0 | S = 0 | Stoichiometry = C28H50HfN2Si2 | MND = 12
Hf        -1.90369        2.95368       10.53246
N         -3.55298        4.06036       11.04454
Si        -4.24217        3.15903       12.35240
C         -2.77424        1.96323       12.49233
C         -1.41184        2.45573       12.69477
C         -0.53355        1.34881       12.55488
C         -1.30884        0.20688       12.27795
C         -2.66471        0.58642       12.21445
C         -1.06756        3.74724       13.40309
C          0.93903        1.38799       12.84712
C         -0.79337       -1.19945       12.22542
C         -3.82947       -0.34642       12.06758
C         -4.58771        4.04540       14.02609
C         -5.92081        2.31637       11.96099
C         -3.99065        5.36821       10.58821
C         -5.50213        5.42558       10.34229
C         -3.59024        6.48318       11.56667
H         -1.19565        3.62182       14.48243
H         -0.02727        4.02676       13.23081
H         -1.72169        4.56122       13.08124
H          1.45390        0.54747       12.38641
H          1.38676        2.31001       12.47419
H          1.11912        1.33618       13.92334
H          0.26092       -1.22601       11.96231
H         -1.33928       -1.79825       11.50063
H         -0.90551       -1.67551       13.20199
H         -4.49275       -0.03038       11.26594
H         -3.49298       -1.35790       11.86131
H         -4.40876       -0.36829       12.99149
H         -3.75762        4.64783       14.37784
H         -4.80772        3.31403       14.79717
H         -5.45492        4.69372       13.94397
H         -6.72763        3.04064       11.99952
H         -5.93791        1.86131       10.97712
H         -6.14608        1.54576       12.68885
H         -3.48688        5.57967        9.62901
H         -5.80733        4.60481        9.69863
H         -5.77803        6.36643        9.87130
H         -6.03016        5.33462       11.28694
H         -2.51508        6.46413       11.73447
H         -4.09845        6.34003       12.51546
H         -3.86193        7.45648       11.16377
N         -0.25468        4.06160       10.02115
Si         0.43501        3.16088        8.71312
C         -1.03303        1.96533        8.57247
C         -2.39507        2.45795        8.36893
C         -1.14323        0.58913        8.85390
C         -3.27404        1.35195        8.51130
C         -2.73896        3.74928        7.66024
H         -2.61003        3.62385        6.58100
H         -3.77942        4.02865        7.83173
H         -2.08523        4.56337        7.98256
C         -2.49929        0.21014        8.79100
C          0.02107       -0.34403        9.00273
H          0.68382       -0.02752        9.80463
H         -0.31608       -1.35512        9.20980
H          0.60113       -0.36713        8.07933
C         -3.01522       -1.19598        8.84516
H         -4.06977       -1.22193        9.10730
H         -2.47013       -1.79381        9.57133
H         -2.90229       -1.67346        7.86937
C         -4.74655        1.39108        8.21865
H         -5.26171        0.55152        8.68050
H         -5.19418        2.31365        8.59000
H         -4.92645        1.33764        7.14260
C          0.78121        4.04762        7.03979
H         -0.04868        4.65023        6.68787
H          1.00145        3.31642        6.26862
H          1.64845        4.69583        7.12242
C          2.11341        2.31781        9.10473
H          2.92042        3.04186        9.06606
H          2.13041        1.86291       10.08867
H          2.33849        1.54701        8.37701
C          0.18282        5.36940       10.47785
C          1.69425        5.42681       10.72404
H          1.99938        4.60596       11.36764
H          1.97004        6.36760       11.19520
H          2.22246        5.33598        9.77948
C         -0.21754        6.48451        9.49954
H         -1.29267        6.46533        9.33154
H          0.29086        6.34161        8.55081
H          0.05394        7.45777        9.90268
H         -0.32111        5.58068       11.43699
