74
CSD_code = GOCJAJ | q = 0 | S = 0 | Stoichiometry = C23H44N4Si2Ti | MND = 5
Ti         1.78973        3.45886        9.59232
Si         1.41972        6.14309       11.33167
Si         2.32571        1.60717        7.09194
N          3.06314        4.81288        8.50978
N          0.93343        5.09670       10.06852
N          1.36878        2.79778        7.86262
N          1.16280        2.20283       10.78636
C          4.37286        5.00416        8.64923
H          4.85917        4.40656        9.41283
C          5.09550        5.90145        7.88764
H          6.15666        6.02272        8.03701
C          4.41582        6.63771        6.92570
H          4.93832        7.34737        6.30129
C          3.05560        6.44898        6.78258
H          2.51730        7.01743        6.04273
C          2.39270        5.52553        7.59541
C          0.91595        5.27975        7.52746
C          0.63695        3.78777        7.13731
H         -0.45112        3.63611        7.27913
H          0.82768        3.70821        6.05560
C         -0.08021        7.14080       12.00803
H         -0.86519        6.48246       12.36857
H         -0.51414        7.77503       11.24030
H          0.21349        7.78322       12.83167
C          2.17176        5.10376       12.74248
H          1.92340        4.05181       12.63281
H          1.80330        5.43940       13.70592
H          3.25331        5.19452       12.76257
C          2.70935        7.46676       10.76866
H          2.37415        7.98410        9.87270
H          3.67080        7.01243       10.54005
H          2.87426        8.21867       11.53352
C          4.13639        2.16247        6.70884
H          4.15785        3.08979        6.13952
H          4.66826        1.41420        6.12910
H          4.69572        2.32816        7.62699
C          1.58470        1.10118        5.39306
H          1.72332        1.88066        4.64974
H          0.52041        0.90051        5.46586
H          2.06296        0.20509        5.01267
C          2.37270        0.07327        8.23112
H          3.30648       -0.46737        8.11612
H          1.56917       -0.61986        8.00159
H          2.27628        0.36870        9.27302
C         -0.15801        1.73658       11.15588
C         -0.26779        0.20111       11.12485
H         -0.02274       -0.15821       10.12775
H         -1.28142       -0.10665       11.37338
H          0.41706       -0.25741       11.82994
C         -1.11420        2.30268       10.09091
H         -0.78196        1.96845        9.10431
H         -1.08757        3.39391       10.13868
H         -2.13341        1.95980       10.26532
C         -0.58478        2.29057       12.52880
H          0.04862        1.90208       13.32038
H         -1.61631        2.01849       12.74335
H         -0.49477        3.37672       12.51668
C          3.39423        2.65420       10.62725
H          4.03556        1.95973       10.06398
H          4.01826        3.27280       11.28695
C          2.34949        1.89893       11.42401
C          2.60044        1.15212       12.51208
H          1.81247        0.67592       13.07778
C          3.97803        0.93783       13.06730
H          4.10386       -0.09888       13.38115
H          4.15141        1.56980       13.94274
H          4.74001        1.16746       12.32641
C          0.20691        6.14804        6.47994
H          0.32876        7.20779        6.69572
H         -0.85850        5.92563        6.49165
H          0.57924        5.94296        5.47812
C          0.27785        5.63356        8.91567
H          0.23503        6.73395        8.96119
H         -0.77088        5.28211        8.86798
