99
CSD_code = GODSUO | q = 0 | S = 0 | Stoichiometry = C30H62FeN2P2Si2 | MND = 4
Fe         9.99963        2.23529        6.26947
P         12.63133        2.31646        5.85460
P          8.70973        1.53928        8.16468
Si        11.19905        4.98940        6.36538
Si         9.32040        4.51573        8.65304
N         10.28280        3.94953        7.36875
N          9.61597        1.59234        4.65897
H          8.89662        2.24308        4.31996
C         10.31052        5.17203        4.67451
H          9.30034        5.54831        4.79851
H         10.25029        4.19530        4.20090
H         10.82968        5.84018        3.99487
C         11.55569        6.73184        7.04015
H         10.62803        7.24527        7.25837
H         12.10715        7.33089        6.32364
H         12.13429        6.69032        7.95498
C         12.87351        4.14377        5.98236
H         13.22280        4.52199        5.02552
H         13.63266        4.37750        6.72397
C         13.55293        1.71476        7.41359
C         13.29469        0.21393        7.54747
H         13.64176       -0.14581        8.51611
H         13.80887       -0.35232        6.77669
H         12.22870        0.01959        7.46087
C         12.85721        2.41975        8.58039
H         13.10849        1.92889        9.52009
H         11.77487        2.39840        8.44384
H         13.15744        3.46102        8.65226
C         15.05353        1.98038        7.48904
H         15.39658        1.81597        8.51102
H         15.29704        3.00405        7.21629
H         15.60777        1.30350        6.84433
C         13.73787        1.97217        4.31945
C         12.90749        2.50161        3.14454
H         13.40352        2.27868        2.19992
H         12.76670        3.57869        3.20293
H         11.93215        2.02312        3.13157
C         15.11408        2.63848        4.28497
H         15.50008        2.60021        3.26573
H         15.82546        2.12488        4.92262
H         15.07590        3.68203        4.58384
C         13.90947        0.46737        4.12291
H         14.33057        0.26718        3.13742
H         12.94811       -0.03422        4.18601
H         14.58521        0.04522        4.86233
C         10.30449        5.23219       10.12924
H         10.75145        6.18198        9.86196
H         11.10522        4.56858       10.43876
H          9.66296        5.40418       10.98835
C          8.01843        5.84740        8.19473
H          8.46035        6.83234        8.29850
H          7.14316        5.81836        8.83697
H          7.68452        5.75235        7.16716
C          8.46934        2.93695        9.32772
H          8.96207        2.68594       10.26323
H          7.41489        3.08896        9.54357
C          8.85425        0.08970        9.41995
C         10.28512        0.20827        9.95345
H         10.48784       -0.58515       10.67262
H         10.44756        1.16215       10.45058
H         10.99761        0.12363        9.13850
C          7.88797        0.12157       10.60377
H          8.17943       -0.65103       11.31615
H          6.86690       -0.08107       10.30029
H          7.91040        1.07423       11.12462
C          8.72387       -1.25552        8.70806
H          9.09995       -2.05263        9.34960
H          9.29926       -1.25949        7.78642
H          7.68581       -1.48167        8.47905
C          6.99026        1.44428        7.33287
C          6.83461        2.81725        6.66640
H          6.04202        2.79055        5.91878
H          7.76831        3.12056        6.18196
H          6.58314        3.57661        7.40022
C          7.01154        0.37026        6.24310
H          6.13178        0.46650        5.60672
H          7.00349       -0.62932        6.66605
H          7.90101        0.47204        5.62506
C          5.78535        1.19715        8.23902
H          4.87190        1.42614        7.68920
H          5.80314        1.82385        9.12719
H          5.72908        0.15591        8.54547
C          9.92522        0.71530        3.64966
C          9.68063        1.04436        2.29362
C         10.00109        0.13896        1.29907
H          9.82130        0.40650        0.26718
C         10.54514       -1.09722        1.60110
H         10.79749       -1.78877        0.81165
C         10.74548       -1.44055        2.92527
H         11.14258       -2.41458        3.17461
C         10.44475       -0.56093        3.95114
C          9.07882        2.37063        1.92344
H          8.07703        2.47965        2.34510
H          8.99732        2.45508        0.84263
H          9.69127        3.19759        2.28395
C         10.60562       -1.01155        5.37166
H         11.59847       -1.41902        5.54412
H          9.88269       -1.80080        5.58142
H         10.44044       -0.17121        6.05020
