68
CSD_code = GOGKUI | q = 0 | S = 0 | Stoichiometry = C15H45N3Si4Zr | MND = 4
Zr        -0.00004       -0.00005       -0.28615
Si         0.00005        0.00006       -2.95979
Si         2.06961       -0.92200       -3.69481
N          0.02976       -1.94889        0.32124
C          2.90558       -0.33439       -5.31997
C          3.29812       -0.51008       -2.27435
C         -0.42479       -2.17034        1.67614
C          1.22899       -2.71856        0.07027
C          1.97184       -2.83544       -3.84768
H          2.27658       -0.54284       -6.17939
H          3.86228       -0.82237       -5.48737
H          3.08323        0.73573       -5.29920
H          2.75795       -0.28099       -1.34645
H          3.89533        0.36299       -2.52306
H          3.99286       -1.32044       -2.06855
H         -1.35750       -1.62261        1.85882
H          0.32459       -1.86645        2.44350
H         -0.63264       -3.24213        1.85196
H          1.56964       -2.55352       -0.95661
H          1.03211       -3.79850        0.19698
H          2.05908       -2.46655        0.76540
H          1.62498       -3.12540       -4.83408
H          1.27416       -3.25098       -3.12589
H          2.93432       -3.31440       -3.68964
Si        -0.23622        2.25333       -3.69479
C         -1.16325        2.68330       -5.31990
H         -0.66828        2.24280       -6.17936
H         -1.21914        3.75580       -5.48733
H         -2.17877        2.30197       -5.29896
C         -1.20712        3.11132       -2.27429
H         -1.13545        2.52901       -1.34645
H         -2.26179        3.19215       -2.52283
H         -0.85259        4.11804       -2.06842
C          1.46970        3.12545       -3.84780
H          1.89439        2.96989       -4.83412
H          2.17836        2.72921       -3.12585
H          1.40314        4.19847       -3.68995
Si        -1.83321       -1.33118       -3.69481
C         -1.74235       -2.34876       -5.32009
H         -1.60846       -1.69970       -6.17944
H         -2.64326       -2.93336       -5.48751
H         -0.90436       -3.03758       -5.29942
C         -2.09069       -2.60119       -2.27446
H         -1.62243       -2.24798       -1.34651
H         -1.63303       -3.55477       -2.52308
H         -3.13974       -2.79791       -2.06874
C         -3.44154       -0.28994       -3.84746
H         -3.51943        0.15546       -4.83383
H         -3.45254        0.52202       -3.12565
H         -4.33748       -0.88408       -3.68929
N          1.67285        1.00009        0.32124
C          2.09181        0.71725        1.67620
H          2.08375       -0.36436        1.85899
H          1.45395        1.21442        2.44346
H          3.12393        1.07311        1.85201
C          1.73986        2.42346        0.07012
H          1.42675        2.63585       -0.95683
H          2.77356        2.79289        0.19694
H          1.10651        3.01643        0.76511
N         -1.70275        0.94851        0.32109
C         -1.66724        1.45315        1.67589
H         -0.72666        1.98733        1.85837
H         -1.77847        0.65234        2.44342
H         -2.49169        2.16887        1.85165
C         -2.96890        0.29469        0.07027
H         -2.99631       -0.08302       -0.95654
H         -3.80573        1.00518        0.19687
H         -3.16567       -0.55006        0.76555
