30
CSD_code = GOHJIW | q = 0 | S = 0 | Stoichiometry = C12H14FeO2Si | MND = 8
Fe        -2.38514        4.17686       11.48515
Si         0.26455        0.60163        9.33984
O         -3.54954        4.69247        8.89030
O         -0.18562        5.80300       10.55832
C         -3.13263        4.49383        9.93887
C         -1.05968        5.18880       10.97303
C         -2.74434        4.88707       13.62875
H         -2.40455        5.81089       14.06788
C         -3.99899        4.66917       13.02549
H         -4.79264        5.39253       12.93557
C         -4.10195        3.28332       12.71678
H         -4.98802        2.78513       12.35795
C         -2.91396        2.65238       13.14119
H         -2.71752        1.59338       13.12247
C         -2.05816        3.64424       13.67818
H         -1.12524        3.46036       14.18554
C         -1.35982        2.90631       10.54436
C         -0.71793        2.00182       10.05831
C         -0.93560       -0.67046        8.57583
H         -0.40317       -1.50909        8.13584
H         -1.53843       -0.21627        7.79546
H         -1.61512       -1.06743        9.32393
C          1.27269       -0.21800       10.73913
H          1.87767       -1.04019       10.36728
H          0.62142       -0.61283       11.51309
H          1.94157        0.49729       11.20792
C          1.43812        1.28688        8.00198
H          0.87983        1.76238        7.20143
H          2.04618        0.50209        7.56050
H          2.11013        2.03135        8.41773
