51
CSD_code = GOMBOB | q = 0 | S = 0 | Stoichiometry = C17H29Cl2NSiTi | MND = 8
Ti         6.00998        9.74055        3.92293
Cl         7.52827       10.52203        2.57416
Cl         7.29523        8.83594        5.42264
Si         3.62047        8.37695        2.97403
N          5.35257        8.30097        2.97943
C          3.77655       10.02290        3.93945
C          4.37277       11.15926        3.30779
C          4.14804       11.61662        1.89537
H          4.96732       11.29619        1.24483
H          4.09239       12.70508        1.85731
H          3.21671       11.20972        1.51072
C          5.15875       11.85954        4.25938
C          5.84834       13.16934        4.01189
H          5.11967       13.98403        4.01043
H          6.35477       13.16149        3.04556
H          6.58696       13.37835        4.78439
C          5.07756       11.15344        5.49319
C          5.66905       11.56659        6.80945
H          6.52131       12.23026        6.66781
H          6.00474       10.69358        7.37048
H          4.92360       12.09521        7.40921
C          4.23961       10.02531        5.29280
C          3.83460        9.06947        6.37797
H          3.68279        9.60781        7.31390
H          4.60697        8.31295        6.54404
H          2.90613        8.57084        6.11312
C          2.69408        6.97493        3.89766
H          2.53793        6.13195        3.23208
H          1.71467        7.30534        4.22740
H          3.24139        6.61636        4.76276
C          2.78146        8.51810        1.25602
H          3.42095        8.99902        0.52397
H          1.85471        9.07861        1.31837
H          2.53251        7.53215        0.87784
C          6.25406        7.28158        2.50306
H          7.28742        7.67364        2.57929
C          6.92582        4.63190        1.41374
H          7.66570        3.90571        1.07148
H          5.93776        4.17680        1.31164
C          6.16622        6.01266        3.36220
C          7.17417        4.97441        2.88048
H          8.18485        5.37255        2.99573
H          7.09819        4.07267        3.49176
C          5.99015        6.92764        1.03581
C          6.99464        5.88803        0.54936
H          6.78957        5.63503       -0.49301
H          8.00130        6.30872        0.60012
H          6.05802        7.83875        0.43603
H          6.35567        6.28050        4.40655
H          4.97428        6.53540        0.95223
H          5.15302        5.61247        3.28505
