61
CSD_code = GUDTII | q = 0 | S = 0 | Stoichiometry = C22H34Cl2Si2Zr | MND = 12
Zr         8.82649        1.82850       10.74183
Si         6.56059        0.00016       12.02235
Si         5.99633        2.11187        9.38833
Cl        10.69017        1.28368       12.04038
Cl        10.00984        3.37414        9.44747
C          6.88909        1.85868       12.18633
C          7.88435        2.48794       12.98822
C          8.37005        2.05830       14.34308
C          8.25420        3.70911       12.36594
C          9.27938        4.68100       12.87572
C          7.47085        3.85631       11.19995
C          6.62204        2.72491       11.06821
C          7.56069       -0.14309       10.40944
C          8.87814       -0.66312       10.25132
C          9.49514       -1.78078       11.05784
C         10.97810       -1.98124       10.74262
C          8.72009       -3.07505       10.77698
C          9.43058       -0.11138        9.07284
C          8.47812        0.74210        8.47301
C          8.60005        1.36443        7.10307
C         10.02823        1.30027        6.56097
C          7.63548        0.64916        6.14831
C          7.30998        0.74295        9.28763
C          4.71912       -0.49578       11.88937
C          7.26448       -0.98963       13.49823
C          4.19238        1.52029        9.18153
C          6.24392        3.58165        8.18934
H          7.46163        4.73757       10.56883
H         10.38525       -0.38210        8.64498
H          8.50091        2.93190       14.98204
H          9.33463        1.54798       14.28195
H          7.64958        1.39527       14.81447
H          8.93678        5.17071       13.79012
H          9.47625        5.44869       12.12758
H         10.21692        4.16435       13.10033
H          9.41263       -1.54919       12.12480
H         11.52832       -1.05407       10.89088
H         11.11656       -2.32049        9.71832
H         11.39616       -2.73500       11.40633
H          7.66568       -2.94846       11.00994
H          9.11713       -3.89315       11.37368
H          8.80862       -3.33895        9.72526
H          8.31504        2.41997        7.15482
H         10.71816        1.77482        7.25662
H         10.08583        1.82753        5.61124
H         10.33675        0.27033        6.39455
H          6.61455        0.71731        6.51671
H          7.90238       -0.40247        6.06850
H          7.68227        1.09440        5.15711
H          4.40249       -0.98749       12.80229
H          4.54874       -1.18767       11.07235
H          4.07801        0.36345       11.74085
H          8.28828       -0.72235       13.73681
H          7.22809       -2.05507       13.30049
H          6.65885       -0.81045       14.38073
H          3.83203        1.78645        8.19391
H          3.53806        1.99522        9.90321
H          4.09325        0.44812        9.29031
H          6.03791        3.30163        7.16224
H          7.25298        3.98366        8.23872
H          5.55570        4.38157        8.44578
