78
CSD_code = GUHROR | q = 0 | S = 0 | Stoichiometry = C29H39N3O4Si2Ti | MND = 9
Ti         7.59548        4.26335       12.64835
O          7.63664        6.03740       12.35761
O          8.75543        7.75107       13.20826
O          6.37300        4.59837       13.93320
O          6.25242        5.26333       16.04237
N          7.56045        6.43649       14.61234
N          9.62154        4.30507       12.55687
N          8.52415        3.07992       14.00473
Si        10.91876        5.12822       11.72536
Si         8.15437        2.04304       15.36147
C          8.03480        6.78521       13.33345
C          6.67546        5.38058       14.91303
C          7.80506        7.38287       15.66581
C          6.86298        8.38722       15.89126
C          7.09670        9.29422       16.91331
C          8.23998        9.20528       17.68797
C          9.16422        8.20835       17.44659
C          8.96028        7.28143       16.43075
C          5.63263        8.46428       15.04126
C          9.97923        6.21355       16.17050
C          9.69764        3.39868       13.50418
C         10.95779        2.72056       13.88700
C         11.32890        1.58684       13.17068
C         12.49256        0.91161       13.48963
C         13.29497        1.36275       14.52499
C         12.92900        2.49076       15.23883
C         11.76386        3.16980       14.92351
C         10.11021        6.02887       10.25409
C         11.78108        6.37132       12.89065
C         12.22466        3.90140       11.04141
C          6.30143        1.62419       15.21439
C          8.51669        2.93967       17.00919
C          9.14988        0.40525       15.31246
C          5.91034        3.96815       11.09898
C          7.11594        4.09713       10.36746
C          7.94175        2.99538       10.67677
C          7.24844        2.17383       11.59254
C          5.99295        2.76700       11.84468
C          4.72027        4.87832       11.01612
H          6.37665       10.07676       17.10244
H          8.40962        9.91801       18.48145
H         10.05822        8.14001       18.04928
H          5.04736        9.34591       15.28939
H          5.90432        8.50549       13.98594
H          5.01726        7.57804       15.19902
H         10.22171        5.69812       17.09927
H         10.88990        6.66897       15.78134
H          9.60887        5.49034       15.44118
H         10.69664        1.24187       12.36489
H         12.77482        0.03192       12.93069
H         14.20341        0.83539       14.77470
H         13.55266        2.84452       16.04641
H         11.47989        4.04788       15.48145
H         10.79439        6.76167        9.83913
H          9.22146        6.55885       10.58550
H          9.82978        5.35170        9.45186
H         12.56673        6.90251       12.36257
H         12.23557        5.88444       13.74943
H         11.06599        7.10924       13.24545
H         12.85158        4.40598       10.31413
H         12.87334        3.52350       11.82448
H         11.77423        3.04641       10.54669
H          5.94902        1.15183       16.12548
H          5.72480        2.53380       15.07122
H          6.08921        0.94749       14.39092
H          8.23758        2.30999       17.84824
H          9.56852        3.18732       17.12334
H          7.93624        3.85597       17.08234
H          8.70984       -0.30776       16.00128
H         10.18323        0.54963       15.60915
H          9.15197       -0.05035       14.32714
H          7.32038        4.86225        9.63073
H          8.88591        2.76056       10.20142
H          7.56848        1.19909       11.94030
H          5.19110        2.34201       12.43313
H          4.17887        4.88406       11.96267
H          5.03414        5.89580       10.78159
H          4.03753        4.54006       10.23249
