91
CSD_code = GUKCEV | q = 0 | S = 0 | Stoichiometry = C25H60N2P2SiZr | MND = 6
Zr         1.05724        0.51507        4.18973
Si        -0.59693        0.71591        6.66144
P         -0.53070       -1.79690        3.17296
P          0.35477       -3.89925        8.81675
N         -0.65046        1.52180        5.17726
N         -0.58650       -0.96221        6.04683
C         -1.00167        2.92177        5.01078
C         -0.25533        3.82692        6.00494
H          0.81568        3.65825        5.91399
H         -0.56081        3.59255        7.02102
H         -0.46997        4.87580        5.81024
C         -2.51711        3.12454        5.19754
H         -3.06419        2.46217        4.53066
H         -2.79554        4.15283        4.97818
H         -2.80109        2.89439        6.21885
C         -0.63174        3.37387        3.58383
H         -1.24040        2.84828        2.84904
H          0.42573        3.16878        3.39271
H         -0.81541        4.44184        3.47393
C         -2.02350        0.93235        7.94439
H         -1.93082        0.25612        8.78898
H         -2.99059        0.74931        7.48619
H         -2.03863        1.94164        8.34353
C          1.03059        0.91646        7.68285
H          1.02674        0.37906        8.62684
H          1.19273        1.96362        7.92173
H          1.88922        0.57714        7.09917
C         -1.87638       -1.41153        5.56454
H         -2.40579       -0.52708        5.20863
H         -2.48737       -1.85229        6.36862
C         -1.76246       -2.42645        4.42083
H         -2.74651       -2.59292        3.97863
H         -1.39813       -3.38007        4.80839
C          0.15926       -3.44041        2.56094
H          0.74012       -3.77642        3.43253
C         -0.80422       -4.56599        2.19077
H         -0.26284       -5.51152        2.18272
H         -1.22179       -4.42014        1.20014
H         -1.62078       -4.65483        2.90192
C          1.14196       -3.16121        1.42734
H          1.68283       -4.06710        1.15766
H          1.86245       -2.40401        1.73697
H          0.61771       -2.80294        0.54308
C         -1.66254       -1.13491        1.81624
H         -0.97094       -0.77129        1.04715
C         -2.67207       -2.06493        1.14975
H         -3.38609       -1.46911        0.58153
H         -3.23184       -2.64897        1.87628
H         -2.18857       -2.74535        0.45564
C         -2.37401        0.07469        2.42945
H         -2.73594        0.74312        1.64811
H         -1.69090        0.62534        3.08993
H         -3.23500       -0.25025        3.01236
C          0.14940       -1.97703        6.77344
H          1.17671       -1.62653        6.87753
H          0.18465       -2.89905        6.17966
C         -0.41309       -2.32766        8.15840
H         -1.48537       -2.51038        8.06424
H         -0.26633       -1.50084        8.85435
C         -1.02745       -4.47673        9.96752
H         -0.57058       -5.27149       10.56999
C         -2.11772       -5.12328        9.11405
H         -2.85656       -5.61376        9.74628
H         -1.68557       -5.86768        8.44732
H         -2.63445       -4.38159        8.50746
C         -1.61869       -3.43023       10.90519
H         -2.38455       -3.89140       11.52858
H         -2.08426       -2.62041       10.34814
H         -0.86179       -3.01011       11.56282
C          1.56281       -3.15785       10.06006
H          1.06335       -2.36323       10.62730
C          2.06607       -4.23083       11.02104
H          2.85444       -3.82660       11.65514
H          2.47464       -5.07290       10.46473
H          1.27056       -4.59671       11.66586
C          2.74024       -2.55484        9.29768
H          3.48295       -2.16730        9.99439
H          2.41985       -1.73842        8.65571
H          3.21559       -3.31250        8.67695
C          2.70094        2.01990        4.63352
H          3.66718        1.60392        4.30669
H          2.80799        2.25004        5.70329
H          2.59758        2.98529        4.11563
C          2.55494       -1.14998        4.52886
H          3.27073       -1.17719        3.68999
H          2.12119       -2.15857        4.59916
H          3.16122       -1.00659        5.43949
C          1.21945        0.87288        1.95543
H          1.47919       -0.05152        1.41801
H          2.03562        1.58228        1.74696
H          0.32034        1.28107        1.47098
