94
CSD_code = GUKCOF | q = 0 | S = 0 | Stoichiometry = C26H60ClN3P2SiTi | MND = 5
Ti         8.96698        4.78269        8.53695
Cl        10.36901        3.19540        9.32925
Si         6.98859        6.56168        9.27679
P         11.08399        5.90514        7.76910
P          7.00875        8.44341        4.42471
N          7.87179        5.39456       10.11154
N          8.28118        6.86678        8.03480
N          8.35152        3.96360        7.20048
C          7.44989        4.60777       11.25098
C          8.65649        4.39282       12.18301
H          9.45001        3.86397       11.65483
H          8.36683        3.80278       13.05000
H          9.03474        5.35432       12.52873
C          6.94797        3.24096       10.75501
H          7.73435        2.76775       10.15760
H          6.06787        3.38208       10.12739
H          6.69081        2.59133       11.58978
C          6.33513        5.29523       12.05136
H          6.66305        6.27894       12.37729
H          6.07645        4.70309       12.92624
H          5.44801        5.41628       11.43527
C          5.38690        5.97402        8.38425
H          4.64876        5.68185        9.12589
H          5.60890        5.09323        7.78429
H          4.91693        6.71884        7.75000
C          6.55357        8.23627       10.11852
H          5.64829        8.13947       10.70763
H          6.38836        9.03321        9.39904
H          7.34160        8.56043       10.79162
C          9.27407        7.83998        8.44429
H          9.45181        7.68515        9.51368
H          8.90640        8.87424        8.33234
C         10.61172        7.70262        7.69574
H         11.36414        8.34295        8.16359
H         10.50727        8.01751        6.65523
C         12.02041        5.59782        6.18455
H         12.78792        6.36563        6.02850
C         12.65143        4.21109        6.30713
H         13.03183        3.87681        5.34315
H         11.89706        3.49950        6.65054
H         13.47641        4.20552        7.01591
C         11.01937        5.61314        5.03102
H         11.47015        5.19708        4.13136
H         10.68752        6.62336        4.79584
H         10.15002        5.00739        5.30459
C         12.41753        5.88060        9.08063
H         12.69786        4.82165        9.15751
C         11.77952        6.28488       10.41033
H         12.43770        6.02628       11.23866
H         10.83441        5.75081       10.55166
H         11.59710        7.35915       10.45009
C         13.66011        6.71509        8.78388
H         14.35097        6.64481        9.62281
H         13.41426        7.76644        8.64426
H         14.17709        6.36234        7.89532
C          7.86814        6.99338        6.64859
H          7.22527        6.13792        6.43193
H          8.74274        6.89488        5.99393
C          7.15423        8.30151        6.28651
H          7.75995        9.14584        6.62161
H          6.17750        8.36641        6.76866
C          5.16100        8.13548        4.23247
H          4.61616        8.68924        5.00661
C          4.68116        8.57783        2.85372
H          3.64489        8.27698        2.70455
H          5.28571        8.11177        2.07741
H          4.73854        9.65723        2.73452
C          4.90510        6.64170        4.41482
H          3.84369        6.42280        4.30359
H          5.22224        6.30428        5.39792
H          5.45302        6.07179        3.66669
C          7.08523       10.31976        4.22787
H          6.79835       10.49654        3.18400
C          6.17238       11.14010        5.13194
H          6.30179       12.20013        4.91462
H          6.40979       10.98310        6.18175
H          5.12621       10.89181        4.97254
C          8.54276       10.75437        4.37770
H          8.65807       11.80296        4.10760
H          9.18367       10.15928        3.72897
H          8.88810       10.63327        5.40325
C          7.93123        2.86327        6.42482
C          7.05628        1.91911        7.28145
H          7.65674        1.52510        8.10131
H          6.68099        1.09206        6.68202
H          6.21372        2.47257        7.69535
C          7.11417        3.33099        5.19887
H          6.18697        3.79802        5.52552
H          6.87353        2.48667        4.55685
H          7.68658        4.06017        4.62780
C          9.16628        2.06821        5.93740
H          9.80227        1.85071        6.79596
H          9.73274        2.65731        5.21906
H          8.86242        1.13491        5.46845
