92
CSD_code = HABWIQ | q = 0 | S = 0 | Stoichiometry = C30H53ClO4Si3Zr | MND = 6
Zr         4.85452        4.74942       15.57855
Cl         6.11955        2.74211       15.45874
Si         3.78205        7.89662       16.32378
Si         3.39312        3.69476       18.24931
Si         3.63428        4.01477       13.31562
O          4.63453        6.68702       15.73058
O          3.44972        4.08537       16.70042
O          6.70363        5.20443       17.01650
O          6.53924        5.52547       14.19384
C          2.05277        7.28363       16.86428
C          4.62092        8.73926       17.83806
C          3.62801        9.30290       15.02801
C          1.58531        3.53199       18.84874
C          4.25979        5.11042       19.22988
C          4.29611        2.02905       18.58154
C          1.85833        4.83861       13.02119
C          1.17307        4.39065       11.73183
C          1.99450        6.36141       13.03676
C          0.99136        4.42958       14.21546
C          3.18433        2.12736       13.39046
C          2.99806        1.53980       14.64101
C          2.67298        0.20015       14.76139
C          2.52709       -0.58495       13.62943
C          2.70657       -0.01950       12.37874
C          3.03163        1.32086       12.26440
C          4.71352        4.03676       11.69658
C          5.70937        3.06507       11.56483
C          6.57293        3.05251       10.48459
C          6.47141        4.02433        9.50119
C          5.50005        5.00439        9.61482
C          4.63982        5.00749       10.70079
C          7.44353        6.41890       17.06891
C          7.80629        6.58360       18.54416
C          8.04388        5.13428       18.99111
C          7.37366        4.28892       17.89043
C          7.71228        4.83380       13.72645
C          8.52835        5.87306       12.96901
C          7.42013        6.68390       12.30479
C          6.34322        6.70482       13.38859
H          2.07798        6.19959       16.96183
H          1.28397        7.53509       16.14070
H          1.74606        7.69880       17.81864
H          5.61497        9.11132       17.60202
H          4.70764        8.07287       18.69052
H          4.03138        9.59211       18.15836
H          4.59697        9.73726       14.79952
H          2.99904       10.09968       15.40886
H          3.19541        8.96222       14.09350
H          1.04590        2.79136       18.26711
H          1.04864        4.47113       18.76058
H          1.54982        3.22663       19.88868
H          4.93822        4.75276       19.99882
H          3.52674        5.74338       19.72035
H          4.81371        5.73495       18.52820
H          3.59237        1.20414       18.53471
H          4.76419        1.99220       19.56062
H          5.05952        1.83680       17.83008
H          1.03726        3.31199       11.73083
H          1.76496        4.65793       10.86000
H          0.19212        4.85809       11.63508
H          2.52411        6.67965       13.93651
H          1.01239        6.83694       13.02564
H          2.54281        6.71971       12.16709
H          1.49444        4.66533       15.15674
H          0.79436        3.35942       14.19563
H          0.03336        4.95100       14.19253
H          3.10856        2.14658       15.53401
H          2.53588       -0.23635       15.74090
H          2.27646       -1.63240       13.72174
H          2.59394       -0.62591       11.49048
H          3.17650        1.75010       11.28283
H          5.79252        2.29862       12.32422
H          7.32725        2.28213       10.40474
H          7.14132        4.01628        8.65337
H          5.41060        5.76653        8.85260
H          3.88938        5.78182       10.76517
H          6.80075        7.20991       16.67694
H          8.35631        6.32822       16.45876
H          6.96701        7.01958       19.08449
H          8.67912        7.21655       18.68684
H          9.10764        4.90928       19.05137
H          7.60235        4.94271       19.96632
H          8.11917        3.72186       17.31670
H          6.62446        3.59355       18.27483
H          7.40405        4.01998       13.05804
H          8.22388        4.40498       14.59134
H          9.20853        5.41860       12.25385
H          9.09919        6.49737       13.65829
H          7.73465        7.68553       12.02201
H          7.05526        6.16118       11.42092
H          6.44360        7.57918       14.04273
H          5.32689        6.68716       12.97939
