109
CSD_code = HACSIO | q = 0 | S = 0 | Stoichiometry = C49H54O3Si2Ti | MND = 6
Ti         3.88847        9.85300       14.14937
Si         1.33704       10.00432       17.64599
Si         6.93146        8.08935       11.72238
O          3.00087        9.09343       12.85975
O          3.14214        8.92034       15.42305
O          5.53430        9.30568       13.99443
C          2.04273        9.65418       12.11587
C          1.97504       11.06523       12.12566
C          1.07253       11.73128       11.32334
C          0.19954       11.02047       10.50229
C          0.23570        9.63252       10.55629
C          1.12639        8.91787       11.35110
C          2.90772       11.67018       13.10386
C          2.65080       11.72949       14.49319
C          3.86698       11.92472       15.19107
C          4.89942       12.07765       14.21829
C          6.26145       12.41471       14.31942
C          6.99003       12.58470       13.16916
C          6.40725       12.42320       11.89949
C          5.08570       12.08424       11.75845
C          4.30486       11.90645       12.91431
C          3.82341        9.01139       16.56702
C          3.20116        9.62562       17.68767
C          3.94572        9.80924       18.82443
C          5.29481        9.40907       18.91274
C          6.07297        9.66287       20.06082
C          7.36927        9.23681       20.13733
C          7.94403        8.53918       19.06398
C          7.21530        8.27042       17.93910
C          5.87272        8.69255       17.83091
C          5.09663        8.45450       16.66640
C          5.79582        8.03129       14.30380
C          6.37427        7.20460       13.30413
C          6.62542        5.89180       13.59674
C          6.32745        5.33828       14.85904
C          6.55603        3.97608       15.14061
C          6.27417        3.45593       16.37254
C          5.73929        4.28078       17.37260
C          5.51092        5.60754       17.13337
C          5.80884        6.18082       15.87788
C          5.58117        7.55584       15.59307
C         -0.76823       11.78618        9.61136
C         -1.69506       12.63561       10.49260
C         -1.63959       10.86833        8.74963
C          0.03397       12.69813        8.67219
C          1.10393        7.39867       11.46773
C          0.84995        7.03157       12.93916
C          2.45585        6.82170       11.02597
C          0.00404        6.75871       10.61499
C          0.60642        9.15096       19.19564
C          1.06938       11.89090       17.86640
C          0.35280        9.32815       16.15615
C          5.51586        8.90003       10.73656
C          7.76365        6.79903       10.58406
C          8.24639        9.37569       12.24186
H          1.05536       12.81042       11.35479
H         -0.46110        9.07706        9.95589
H          1.66037       11.70979       14.93211
H          3.96571       12.14648       16.24829
H          6.71269       12.56244       15.29291
H          8.03242       12.86219       13.23109
H          7.01868       12.58167       11.02336
H          4.62930       11.99374       10.78107
H          3.49334       10.27424       19.68899
H          5.62215       10.20613       20.87952
H          7.95965        9.43651       21.01956
H          8.97278        8.21689       19.13214
H          7.66172        7.74196       17.10980
H          7.06988        5.25276       12.84788
H          6.95745        3.34954       14.35654
H          6.45292        2.41132       16.58149
H          5.50393        3.85839       18.33873
H          5.08698        6.22980       17.90717
H          1.03882        9.54301       20.11025
H          0.78168        8.07937       19.18626
H         -0.46600        9.30796       19.25107
H          1.55159       12.49408       17.10374
H          1.45548       12.21806       18.82746
H          0.00942       12.12660       17.84952
H         -0.68116        9.66196       16.19807
H          0.34855        8.24172       16.17626
H          0.76641        9.62320       15.19396
H          4.76785        9.31502       11.41057
H          5.02495        8.18666       10.08120
H          5.89425        9.70799       10.11749
H          8.10222        7.27283        9.66923
H          7.08225        6.00233       10.30410
H          8.62994        6.34622       11.05413
H          9.10524        8.89698       12.70479
H          7.82759       10.07631       12.95852
H          8.60640        9.94533       11.39019
H         -1.13146       13.35245       11.08280
H         -2.25361       11.99719       11.17376
H         -2.40260       13.18396        9.87413
H         -2.29077       11.47342        8.12186
H         -2.26862       10.23097        9.36637
H         -1.02863       10.24709        8.09919
H          0.62614       13.41824        9.22932
H         -0.63873       13.24579        8.01539
H          0.70800       12.10402        8.05892
H          1.64475        7.41849       13.58072
H          0.81542        5.94960       13.05160
H         -0.10111        7.44531       13.27080
H          2.67834        7.12589       10.00488
H          2.42649        5.73449       11.06490
H          3.25260        7.16738       11.68239
H         -0.98015        7.11589       10.90904
H          0.02434        5.67983       10.75455
H          0.15810        6.96242        9.55783
