81
CSD_code = HATGIS | q = 0 | S = 0 | Stoichiometry = C30H46Si4Zr | MND = 14
Zr         3.37053        1.93694        0.21790
Si         0.21960        1.05886        4.39303
Si         5.48797        1.05411       -2.61370
Si         6.24252       -3.97210       -3.12776
Si         3.20722       -2.88756        0.91986
C          1.10670        1.60027       -0.77877
C          0.91344        2.49503        0.29802
C          1.57223        3.70034       -0.01447
C          2.18414        3.55376       -1.27875
C          1.89156        2.25443       -1.75591
C          5.40615        1.80377        1.70578
C          5.63090        2.85611        0.79074
C          4.68651        3.87409        1.05563
C          3.88428        3.45001        2.14096
C          4.33354        2.17663        2.54489
C          4.42932        0.57403       -1.14325
C          4.25873       -0.72887       -0.76683
C          3.42095       -1.07311        0.40071
C          2.85335       -0.02180        1.04092
C          2.01641        0.07230        2.12632
C          1.27384        0.35551        3.06137
C          4.87137       -1.78687       -1.47980
C          5.43093       -2.64070       -2.13371
C          2.07307       -3.01728        2.44930
C          7.35338        0.70130       -2.33617
C          2.41364       -3.89200       -0.50111
C          0.59557        0.20101        6.05349
C          4.91398       -3.62243        1.37273
C         -1.61733        0.82382        3.93199
C          5.00010        0.28219       -4.29934
C          0.61156        2.92828        4.53267
C          7.71039       -3.21299       -4.08160
C          4.95987       -4.68213       -4.34893
C          5.25096        2.96199       -2.78591
C          6.84830       -5.33926       -1.94401
H          0.63808        0.62920       -0.88833
H          0.27677        2.31813        1.15624
H          1.50048        4.62528        0.54606
H          2.63786        4.35289       -1.85353
H          2.11403        1.87346       -2.74534
H          6.01944        0.91705        1.81362
H          6.46945        2.92562        0.10894
H          4.68325        4.86616        0.61466
H          3.15551        4.05421        2.66860
H          3.98932        1.63113        3.41473
H          2.47780       -2.47398        3.29653
H          1.08496       -2.61555        2.25178
H          1.95579       -4.05500        2.74638
H          7.52650       -0.36909       -2.30992
H          7.96266        1.11871       -3.13158
H          7.70649        1.11326       -1.39533
H          1.42649       -3.51482       -0.75171
H          3.02241       -3.85257       -1.39806
H          2.30373       -4.93441       -0.21817
H         -0.01668        0.60139        6.85664
H          0.40277       -0.86562        5.99293
H          1.63568        0.32957        6.33774
H          4.81796       -4.66060        1.67546
H          5.59434       -3.58386        0.52879
H          5.37281       -3.08248        2.19597
H         -2.27352        1.23855        4.69195
H         -1.85827        1.30834        2.99033
H         -1.85962       -0.22922        3.82783
H          3.95516        0.46195       -4.53365
H          5.59515        0.69122       -5.10990
H          5.15056       -0.79147       -4.27909
H          1.64946        3.08790        4.81150
H          0.44250        3.43805        3.58752
H         -0.00663        3.41543        5.28154
H          8.46350       -2.82738       -3.40081
H          8.19232       -3.94603       -4.72252
H          7.38621       -2.38860       -4.70972
H          4.57376       -3.90895       -5.00647
H          5.38977       -5.46050       -4.97307
H          4.11481       -5.11382       -3.82099
H          4.99838        3.42698       -1.82846
H          6.15439        3.43678       -3.15556
H          4.46017        3.19588       -3.49297
H          6.02463       -5.74587       -1.36488
H          7.30936       -6.16116       -2.48462
H          7.58286       -4.95471       -1.24264
