102
CSD_code = HAWBAL | q = 0 | S = 0 | Stoichiometry = C43H53N2P2SiTa | MND = 7
Ta         9.09911       21.21172       16.03518
P          8.70244       19.20213       17.53572
P         10.28129       22.80736       14.12551
Si        10.23213       23.10720       18.60453
N          8.84513       19.78695       14.74614
N          7.21796       22.16291       15.72294
C          9.73418       17.88111       16.87504
C         10.47391       18.22939       15.72633
C         11.48379       17.34673       15.31977
H         12.09400       17.60706       14.46498
C         11.69132       16.15072       15.97314
H         12.46777       15.48101       15.63110
C         10.90160       15.78977       17.05850
H         11.05583       14.84219       17.55264
C          9.93830       16.66707       17.51998
H          9.35442       16.42065       18.39735
C         10.19814       19.47529       15.02361
H         10.82895       19.57336       14.12542
C          7.99412       19.06520       13.96185
C          6.79541       19.67880       13.56417
H          6.62858       20.70594       13.85667
C          5.85505       18.99211       12.82419
C          6.10877       17.67280       12.46110
H          5.37148       17.12693       11.88917
C          7.29712       17.04944       12.81753
C          8.23781       17.74752       13.55432
H          9.16085       17.26653       13.84144
C          4.57292       19.65195       12.41042
H          3.71922       19.07113       12.75649
H          4.51150       19.71797       11.32430
H          4.50486       20.65453       12.82440
C          7.56392       15.63480       12.39337
H          6.66812       15.02598       12.49876
H          8.36096       15.19588       12.98870
H          7.86494       15.60744       11.34550
C          6.98299       18.91344       17.02347
C          6.30796       20.09094       16.68149
C          5.01217       20.00000       16.19324
H          4.48035       20.89942       15.91653
C          4.41371       18.75924       16.04341
H          3.40807       18.69571       15.65364
C          5.09428       17.60017       16.37827
H          4.62254       16.63812       16.24213
C          6.38604       17.67200       16.87290
H          6.93612       16.77350       17.11796
C          7.06231       21.37183       16.83338
H          6.83245       21.88398       17.78396
C          6.61010       23.36249       15.51724
C          5.59491       23.86842       16.34383
H          5.26561       23.29650       17.20044
C          4.99616       25.08846       16.07787
C          5.38760       25.81908       14.96621
H          4.92126       26.77070       14.75447
C          6.36366       25.32560       14.10372
C          6.95642       24.11335       14.38161
H          7.69531       23.69255       13.71457
C          3.92353       25.60012       16.99566
H          3.08436       24.90530       17.02538
H          3.55837       26.56948       16.66495
H          4.30699       25.70143       18.01066
C          6.76070       26.11863       12.89115
H          5.87835       26.47560       12.36273
H          7.35684       25.51791       12.20722
H          7.34567       26.99151       13.18466
C          8.68677       18.88987       19.32584
C          9.90715       18.75194       19.98379
H         10.82204       18.76203       19.40684
C          9.94121       18.59586       21.35558
H         10.88826       18.48239       21.86298
C          8.76040       18.59192       22.08297
H          8.78784       18.47280       23.15609
C          7.54626       18.74590       21.43462
H          6.62716       18.74782       22.00259
C          7.50585       18.90052       20.06039
H          6.55913       19.02436       19.55170
C         10.82258       21.81795       17.35562
H         11.20873       20.95757       17.90804
H         11.68415       22.22680       16.82260
C          9.11263       22.32955       19.94890
H          8.31804       21.73025       19.51285
H          8.65032       23.09134       20.56958
H          9.68365       21.67687       20.60199
C         11.69043       23.94744       19.52163
H         12.29963       23.21576       20.04144
H         11.33390       24.66045       20.25784
H         12.33695       24.48213       18.83338
C          9.26312       24.51282       17.72680
H          9.83636       24.92853       16.90265
H          9.04295       25.32779       18.41034
H          8.31529       24.16928       17.32059
C         10.38120       24.63753       13.90811
H          9.39894       25.09233       13.99159
H         10.81588       24.87317       12.93740
H         11.01806       25.03989       14.69357
C         12.08296       22.44031       14.00841
H         12.61093       22.96276       14.80248
H         12.47036       22.76804       13.04436
H         12.24685       21.37313       14.12919
C          9.75822       22.23003       12.45877
H          9.90107       21.15214       12.41283
H         10.34784       22.71458       11.68073
H          8.70268       22.43215       12.29729
