95
CSD_code = HEDCEZ | q = 0 | S = 0 | Stoichiometry = C39H45F6MoNO2Si | MND = 4
Mo         7.62084        3.05796       12.48231
Si         8.76200        1.21879       15.17964
F          8.35203        4.69090        9.91519
F         10.43613        5.16830        9.60382
F          9.88067        3.33084       10.58099
F          7.01279        0.95850        7.65473
F          8.36266        2.47924        8.33679
F          6.24223        2.74241        8.57795
O          8.46795        4.76158       12.51365
O          7.36205        2.16657       10.97113
N          6.43452        3.40649       13.70401
C          5.28365        3.64664       14.35594
C          4.04758        3.35219       13.72905
C          2.86835        3.61435       14.40243
H          1.91951        3.39962       13.93620
C          2.88133        4.15864       15.67415
H          1.95071        4.35088       16.18756
C          4.08496        4.47670       16.27865
H          4.07624        4.92614       17.25902
C          5.28779        4.23465       15.64280
C          4.07753        2.81386       12.31925
H          4.92072        2.10036       12.27180
C          2.79788        2.09070       11.90451
H          2.52492        1.33738       12.63920
H          2.93816        1.59899       10.94343
H          1.97309        2.79160       11.79871
C          4.37082        3.96356       11.34317
H          3.59055        4.71958       11.41508
H          5.33061        4.43601       11.58213
H          4.40712        3.60229       10.31640
C          6.61768        4.62780       16.23245
H          7.32344        3.83002       15.98049
C          7.10681        5.91351       15.55264
H          8.04392        6.23505       16.00156
H          7.26829        5.73132       14.48831
H          6.37179        6.70821       15.67042
C          6.60410        4.80410       17.74810
H          7.62675        4.89013       18.11001
H          6.06588        5.70493       18.03557
H          6.14113        3.94710       18.22974
C          7.28430        1.16233       10.03392
C          5.99901        0.33920       10.21005
H          5.98042       -0.06284       11.22319
H          5.97186       -0.47933        9.49517
H          5.12484        0.97102       10.06124
C          8.52500        0.25946       10.09751
H          8.47938       -0.50224        9.32300
H          9.42710        0.85452        9.96398
H          8.55756       -0.21537       11.07762
C          7.23056        1.83873        8.64603
C          9.54631        5.31650       11.86726
C          9.33760        6.82797       11.67385
H          8.41452        7.00524       11.12365
H          9.25104        7.29212       12.65300
H         10.17259        7.26529       11.13296
C         10.87514        5.02155       12.58278
H         10.94184        3.95554       12.80593
H         10.90492        5.57467       13.51770
H         11.71506        5.32002       11.95956
C          9.57423        4.64438       10.47906
C          8.81483        1.83068       13.42578
H          9.66100        1.43636       12.85537
C          9.64485       -0.45349       15.39740
C         11.03342       -0.51374       15.46229
H         11.60046        0.40522       15.41168
C         11.69471       -1.72048       15.60006
H         12.77432       -1.74431       15.65143
C         10.97279       -2.90005       15.67501
H         11.48560       -3.84502       15.78443
C          9.59016       -2.86078       15.61231
H          9.02111       -3.77802       15.67397
C          8.93744       -1.64870       15.47386
H          7.85752       -1.62271       15.43200
C          9.60965        2.41435       16.39578
C         10.01364        2.01415       17.66517
H          9.84285        0.99277       17.97583
C         10.63390        2.89883       18.53009
H         10.93663        2.57122       19.51474
C         10.87018        4.20413       18.13354
H         11.35653        4.89655       18.80603
C         10.48075        4.61718       16.86968
H         10.66755        5.63621       16.55779
C          9.85577        3.72894       16.01298
H          9.53279        4.04865       15.02760
C          6.93766        0.98473       15.65702
C          6.45048        1.26244       16.92769
H          7.13545        1.60226       17.69128
C          5.10650        1.12239       17.22634
H          4.74427        1.35448       18.21802
C          4.22299        0.68620       16.25567
H          3.17223        0.58174       16.48338
C          4.69408        0.38418       14.98890
H          4.00982        0.02750       14.23157
C          6.03703        0.53621       14.69698
H          6.40729        0.30308       13.70135
