115
CSD_code = HEDHOO | q = 0 | S = 0 | Stoichiometry = C52H54N2P2RuS2Si2 | MND = 6
Ru         7.47572       -0.00030        1.72243
Si         8.35461        4.40352        4.70407
S          7.16339        2.35716        2.34537
P          5.79564       -0.38799        0.21336
N          8.70322        0.55538        3.23297
C          8.34878        1.82999        3.47023
C          8.91117        2.60480        4.49009
C          9.87470        1.98101        5.26359
H         10.35039        2.52799        6.06361
C         10.23935        0.65969        5.02159
H         10.99108        0.16953        5.61954
C          9.62511       -0.02257        3.99097
H          9.87299       -1.05178        3.75642
C          6.49130        4.45216        5.10628
H          6.25710        3.85282        5.98212
H          5.91063        4.06695        4.27480
H          6.15943        5.46734        5.30166
C          8.75982        5.38539        3.12002
H          8.46888        6.42654        3.22176
H          8.23059        4.97465        2.26625
H          9.82256        5.36079        2.89442
C          9.32574        5.14671        6.16605
H          9.13886        4.61044        7.09083
H          9.02848        6.17783        6.32297
H         10.39600        5.14095        5.98667
C          5.71811       -1.77099       -0.98263
C          6.66440       -2.78409       -0.95730
H          7.48053       -2.72759       -0.25135
C          6.55213       -3.86429       -1.81636
H          7.29433       -4.64838       -1.78869
C          5.49156       -3.93829       -2.70115
H          5.40349       -4.77897       -3.37405
C          4.53004       -2.93820       -2.71542
H          3.69259       -3.00332       -3.39538
C          4.63517       -1.86339       -1.85531
H          3.87916       -1.08926       -1.85336
C          5.41734        1.04184       -0.84803
C          5.69031        1.03952       -2.21233
H          6.08277        0.14762       -2.68047
C          5.46507        2.17579       -2.96828
H          5.67764        2.16516       -4.02770
C          4.97328        3.32510       -2.37283
H          4.78796        4.20652       -2.96946
C          4.74274        3.34949       -1.00679
H          4.39162        4.25409       -0.53150
C          4.98014        2.22041       -0.24527
H          4.86553        2.25772        0.83018
C          4.20722       -0.80439        1.03202
C          3.10067        0.02344        1.16114
H          3.08401        0.99342        0.68758
C          1.99999       -0.39878        1.88897
H          1.14321        0.25311        1.98385
C          1.99308       -1.64186        2.49591
H          1.13711       -1.95862        3.07362
C          3.08458       -2.48370        2.35088
H          3.08266       -3.46086        2.81201
C          4.17861       -2.07090        1.61834
H          5.02828       -2.73152        1.49267
Si         6.59830       -4.40317        4.70577
S          7.78808       -2.35762        2.34552
P          9.15585        0.38773        0.21354
N          6.24811       -0.55585        3.23288
C          6.60293       -1.83027        3.47056
C          6.04094       -2.60481        4.49085
C          5.07728       -1.98100        5.26418
H          4.60186       -2.52780        6.06448
C          4.71213       -0.65992        5.02163
H          3.96030       -0.16976        5.61945
C          5.32611        0.02214        3.99072
H          5.07802        1.05123        3.75587
C          8.46177       -4.45076        5.10741
H          8.69603       -3.85058        5.98266
H          9.04203       -4.06605        4.27541
H          8.79407       -5.46565        5.30355
C          6.19299       -5.38613        3.12243
H          6.48443       -6.42709        3.22467
H          6.72175       -4.97565        2.26824
H          5.13016       -5.36212        2.89719
C          5.62796       -5.14581        6.16855
H          5.81497       -4.60889        7.09293
H          5.92567       -6.17672        6.32602
H          4.55764       -5.14056        5.98954
C          9.23379        1.77131       -0.98176
C          8.28727        2.78420       -0.95663
H          7.47068        2.72726       -0.25125
C          8.39983        3.86475       -1.81522
H          7.65745        4.64867       -1.78768
C          9.46091        3.93930       -2.69936
H          9.54924        4.78029       -3.37184
C         10.42259        2.93937       -2.71349
H         11.26043        3.00491       -3.39293
C         10.31717        1.86422       -1.85385
H         11.07331        1.09021       -1.85178
C          9.53410       -1.04160       -0.84858
C          9.26169       -1.03837       -2.21300
H          8.86972       -0.14607       -2.68077
C          9.48693       -2.17424       -2.96955
H          9.27488       -2.16287       -4.02907
C          9.97818       -3.32405       -2.37462
H         10.16359       -4.20511       -2.97174
C         10.20813       -3.34935       -1.00850
H         10.55880       -4.25434       -0.53362
C          9.97071       -2.22067       -0.24638
H         10.08467       -2.25875        0.82912
C         10.74432        0.80346        1.03245
C         11.85021       -0.02514        1.16237
H         11.86637       -0.99531        0.68918
C         12.95073        0.39636        1.89087
H         13.80699       -0.25613        1.98635
C         12.95817        1.63952        2.49764
H         13.81410        1.95583        3.07566
C         11.86734        2.48210        2.35186
H         11.86975        3.45939        2.81271
C         10.77344        2.06998        1.61873
H          9.92430        2.73117        1.49254
