71
CSD_code = HIGHOX | q = 0 | S = 0 | Stoichiometry = C27H39N2ScSi2 | MND = 8
Sc        12.27981        9.28755        1.56823
Si        10.35297        6.95336        3.57892
Si        14.59115        7.01187        0.11653
N         11.03840       10.25811       -1.48591
N         13.00392       11.04892       -1.19860
C         11.55947       12.10591        1.46382
C         12.11844       10.97672        3.41360
C         13.32942       11.36803        2.71589
C         12.99086        6.03661       -0.27838
H         12.57870        5.59123        0.62155
H         13.16616        5.23754       -0.99154
H         12.23173        6.69439       -0.69713
C         12.52663       11.59737       -2.35506
H         13.09677       12.28146       -2.94974
C         12.20063       10.42564        4.69903
H         11.29956       10.18912        5.24891
C         12.09266       10.21910       -0.63551
C         11.00977       11.42735        2.61580
C         12.08539        6.71598        4.36842
H         12.70078        6.06320        3.75503
H         12.01976        6.26799        5.35545
H         12.60709        7.66768        4.47011
C         13.43628       10.23375        5.27522
H         13.50845        9.81948        6.27010
C         12.97550       12.04836        1.52190
C         10.48996        7.99679        2.00509
H          9.59846        8.64638        1.94926
H         10.39841        7.29601        1.15874
C         14.57481       11.15920        3.34821
H         15.49042       11.47765        2.86562
C          9.78013        9.59267       -1.27892
H          9.94186        8.65745       -0.74138
H          9.31298        9.38273       -2.24091
H          9.11206       10.22688       -0.68854
C         15.98669        5.72944        0.41397
H         16.93693        6.21782        0.60806
H         16.12452        5.07202       -0.43961
H         15.76005        5.10630        1.27373
C          8.79675       12.00483        1.90262
H          7.72634       11.98928        2.04844
C         14.24929        8.20002        1.53497
H         15.09611        8.90101        1.61854
H         14.27797        7.61228        2.46544
C         11.28285       11.09522       -2.53921
H         10.57109       11.26352       -3.32093
C         14.22853       11.45457       -0.55976
H         14.92075       11.82196       -1.32232
H         14.66452       10.58466       -0.05170
C         13.92539       12.55736        0.48559
H         14.86830       12.86167        0.94402
H         13.49941       13.42418       -0.02693
C         10.67760       12.73619        0.56479
H         11.06319       13.28256       -0.28726
C          9.65706        5.19653        3.24170
H          8.64597        5.23636        2.84769
H          9.63313        4.59420        4.14449
H         10.27003        4.67160        2.51509
C          9.32468       12.67209        0.78741
H          8.64605       13.15973        0.10002
C          9.62660       11.39800        2.81862
H          9.21496       10.91750        3.69616
C         15.06151        7.96295       -1.48577
H         14.24789        8.60112       -1.81973
H         15.28631        7.27350       -2.29312
H         15.93921        8.58487       -1.34035
C         14.61118       10.59746        4.59963
H         15.56204       10.44849        5.09162
C          9.19242        7.75369        4.87810
H          9.48901        8.77281        5.10218
H          9.20311        7.19898        5.81101
H          8.16594        7.78225        4.52589
