47
CSD_code = HINMAS | q = 0 | S = 0 | Stoichiometry = C21H22OPRhSi | MND = 7
Rh        -4.64100       12.88501      -17.42618
P         -4.47528       11.01562      -16.19550
Si        -6.36787       12.60413      -14.43840
O         -2.89062       11.82388      -19.59698
C         -5.96731       13.73656      -15.89271
C         -4.89604       14.68394      -15.97302
C         -4.88119       15.20301      -17.27210
C         -6.01702       14.67090      -17.98041
C         -6.72050       13.83242      -17.10808
C         -8.21637       12.65187      -13.97889
C         -5.29197       12.98461      -12.91208
C         -5.94195       10.84140      -15.10790
C         -3.11309       11.04737      -14.97978
C         -2.91626       10.00088      -14.08578
C         -1.88932       10.06499      -13.16251
C         -1.05054       11.16842      -13.12958
C         -1.23268       12.20630      -14.02865
C         -2.26064       12.14353      -14.95252
C         -4.19028        9.36300      -16.90829
C         -5.16938        8.38441      -17.01893
C         -4.87376        7.17176      -17.61838
C         -3.60568        6.93161      -18.11803
C         -2.62703        7.90940      -18.02196
C         -2.91872        9.11897      -17.42402
C         -3.56775       12.27851      -18.77806
H         -4.25749       14.97617      -15.15360
H         -4.24651       15.99647      -17.63850
H         -6.35090       15.01412      -18.94852
H         -7.68141       13.37600      -17.29084
H         -8.49030       13.63499      -13.61330
H         -8.43862       11.93630      -13.19436
H         -8.85661       12.42576      -14.82500
H         -5.48730       13.98701      -12.54565
H         -4.23195       12.90794      -13.13314
H         -5.51112       12.29286      -12.10472
H         -5.76566       10.08867      -14.33910
H         -6.76638       10.50743      -15.74115
H         -3.56127        9.13326      -14.12319
H         -1.73824        9.25190      -12.46734
H         -0.24993       11.21468      -12.40608
H         -0.57219       13.06096      -14.00988
H         -2.41772       12.94091      -15.67619
H         -6.16425        8.56313      -16.63799
H         -5.63844        6.41252      -17.69762
H         -3.38004        5.98512      -18.58669
H         -1.63902        7.72670      -18.41779
H         -2.16599        9.89318      -17.34800
