63
CSD_code = HISJID | q = 0 | S = 0 | Stoichiometry = C24H27N2O5PSSi2W | MND = 6
W          3.86021        1.50428        6.38781
P          4.18582        1.79307        3.93608
Si         5.62520        2.97902        1.40319
Si         2.93968        4.26963        2.79596
S          0.99524       -2.81508        0.89986
O          4.35716       -1.58253        6.07577
O          6.77972        1.94147        7.42142
O          3.37215        1.08786        9.44609
O          3.75531        4.59460        6.90340
O          0.85710        0.75155        5.86774
N          2.88703        1.17611        3.11212
N          4.38581       -0.58673        2.97621
C          4.16882       -0.45840        6.15406
C          5.76008        1.78466        6.92559
C          3.54060        1.24652        8.32576
C          3.69722        3.47493        6.67259
C          1.93160        1.10761        6.01203
C          5.16141        0.29006        3.53739
C          3.14544       -0.04722        2.73302
C          4.61304        3.30694        3.01675
H          5.23544        3.88594        3.70545
C          7.45543        2.56043        1.76551
H          8.04330        2.71463        0.86550
H          7.59762        1.52893        2.07054
H          7.87976        3.19613        2.53690
C          4.88312        1.58554        0.33841
H          5.26527        1.63721       -0.67676
H          3.80132        1.63812        0.28780
H          5.14345        0.60774        0.73304
C          5.69417        4.60548        0.40605
H          6.18040        5.39275        0.97283
H          4.71805        4.96833        0.10756
H          6.27693        4.45354       -0.49655
C          2.08782        3.77950        1.16103
H          1.18410        4.36545        1.02490
H          1.80101        2.73310        1.18413
H          2.71314        3.93579        0.28957
C          1.65420        3.97573        4.16759
H          1.91586        4.46089        5.10162
H          1.53644        2.91404        4.35661
H          0.68638        4.36552        3.86430
C          3.39595        6.12205        2.82709
H          4.11254        6.38774        2.05952
H          3.81513        6.41236        3.78544
H          2.50736        6.72220        2.66757
C          6.48560       -0.02435        4.01871
C          7.28407        0.98433        4.55880
H          6.90155        1.99724        4.58510
C          8.54547        0.69302        5.03656
H          9.15691        1.47591        5.45923
C          9.02253       -0.60821        4.98024
H         10.00662       -0.83675        5.36125
C          8.23901       -1.61540        4.43725
H          8.61491       -2.62675        4.39485
C          6.97655       -1.33020        3.95615
H          6.34720       -2.09932        3.53659
C          2.15201       -0.85927        2.07791
C          0.81917       -0.42965        1.81689
H          0.45535        0.53977        2.10350
C          0.08663       -1.37651        1.18966
H         -0.93696       -1.33167        0.87547
C          2.37831       -2.13491        1.63375
H          3.28942       -2.69297        1.70847
