77
CSD_code = HISWOV | q = 0 | S = 0 | Stoichiometry = C32H40N2Si2Zr | MND = 13
Zr        -0.05742       13.33293       23.43231
Si         2.64271       14.80099       27.26716
Si        -0.26126       12.53363       26.91246
N          1.63104       14.96193       22.12453
N          1.26286       14.82723       23.37356
C          0.57353       10.92235       23.79452
C         -0.17781       10.98072       22.60132
C          0.58631       11.68364       21.64106
C          1.81273       12.03977       22.23700
C          1.80236       11.58487       23.56858
C         -2.55361       13.27683       23.14699
C         -2.07239       13.35991       21.82578
C         -1.43147       14.60386       21.66728
C         -1.53370       15.30607       22.88285
C         -2.20960       14.48121       23.81272
C          2.92982       15.62641       20.26119
C          2.15279       14.88193       19.36577
C          2.43518       14.88674       18.01657
C          3.49880       15.63056       17.52582
C          4.27746       16.37053       18.40068
C          3.99848       16.36961       19.75318
C          1.63941       16.70966       24.83543
C          0.34778       16.97140       25.28496
C         -0.06217       18.26939       25.52304
C          0.81339       19.32477       25.31980
C          2.09873       19.07230       24.87439
C          2.50827       17.77235       24.63032
C          3.01431       13.28595       28.36709
C          1.80664       16.17288       28.30615
C          4.36860       15.45341       26.75237
C          0.69432       10.94038       27.42674
C         -1.91263       11.89787       26.14499
C         -0.82371       13.43595       28.51083
C          0.53630       13.58363       25.56880
C          1.59863       14.39872       25.72247
C          2.01934       15.27624       24.53777
C          2.64836       15.61985       21.67625
H          0.33496       10.32899       24.66631
H         -1.10044       10.44307       22.40893
H          0.34420       11.79202       20.58975
H          2.65342       12.49220       21.72641
H          2.63254       11.63208       24.26310
H         -3.22706       12.51500       23.52101
H         -2.28272       12.65201       21.03318
H         -1.03729       15.00554       20.74256
H         -1.23301       16.33376       23.04235
H         -2.56617       14.79232       24.78891
H          1.32985       14.30203       19.76103
H          1.82754       14.30678       17.33594
H          3.71933       15.63158       16.46850
H          5.10768       16.95101       18.02373
H          4.60994       16.94953       20.43083
H         -0.32126       16.13473       25.45705
H         -1.06610       18.46228       25.87262
H          0.49488       20.33918       25.50873
H          2.78613       19.89020       24.71428
H          3.51422       17.59027       24.27810
H          3.38301       12.44567       27.78921
H          2.14193       12.95226       28.91255
H          3.77767       13.54073       29.09584
H          1.85983       17.13357       27.80299
H          2.29487       16.27791       29.27042
H          0.75921       15.95890       28.48729
H          4.30419       16.42843       26.28174
H          4.87292       14.78066       26.06466
H          5.00780       15.55937       27.62407
H          1.62097       10.83457       26.87210
H          0.10001       10.04874       27.24813
H          0.94699       10.94943       28.48124
H         -1.76416       11.49098       25.14273
H         -2.65767       12.68693       26.08972
H         -2.33989       11.10759       26.75635
H          0.01411       13.71655       29.13796
H         -1.48122       12.80395       29.10036
H         -1.37125       14.34282       28.27257
H          3.10328       15.19789       24.35760
H          3.32796       16.17971       22.32011
