82
CSD_code = HIWDAT | q = 0 | S = 0 | Stoichiometry = C23H52CoNOP2Si2 | MND = 4
Co        14.87466        2.07574       18.98097
P         13.54265        3.71565       18.22815
P         16.12222        0.43496       19.86635
Si        12.49960        3.01132       20.96733
Si        14.94226        1.92152       22.20453
O         16.05150        1.71691       16.38625
N         14.07263        2.34353       20.78300
C         11.12200        1.69357       21.17245
H         11.28255        1.11452       22.07447
H         11.08678        0.99832       20.33897
H         10.14471        2.16001       21.25505
C         12.25665        4.24980       22.40023
H         12.21823        3.71225       23.34002
H         11.32430        4.79717       22.30095
H         13.06211        4.97145       22.47251
C         12.10196        3.90922       19.32032
H         11.25840        3.39930       18.86379
H         11.83906        4.95740       19.43931
C         14.47357        5.35290       18.38851
C         15.84811        5.17424       17.74284
H         16.45489        6.06667       17.89499
H         15.77580        4.99070       16.67491
H         16.35566        4.32608       18.20723
C         13.76661        6.57519       17.80970
H         14.31401        7.47450       18.09347
H         12.75448        6.66754       18.19879
H         13.72696        6.54251       16.72407
C         14.68864        5.55826       19.88848
H         15.42323        6.34540       20.05725
H         15.05219        4.63667       20.34192
H         13.76530        5.84424       20.38369
C         12.71631        3.58010       16.51638
C         12.28771        2.11016       16.44673
H         11.71193        1.92037       15.54154
H         11.67434        1.84052       17.30584
H         13.16303        1.46262       16.44033
C         11.48146        4.46723       16.34139
H         11.07609        4.31452       15.34093
H         11.72257        5.52010       16.44434
H         10.69784        4.22148       17.05206
C         13.67986        3.86378       15.36482
H         13.21409        3.57122       14.42337
H         14.60006        3.29910       15.46853
H         13.92063        4.92167       15.29801
C         13.93671        1.14180       23.62735
H         13.27190        0.35537       23.28901
H         13.32637        1.90181       24.09975
H         14.58621        0.72525       24.39102
C         15.90771        3.38760       22.97606
H         16.59060        3.84889       22.26871
H         16.48941        3.06524       23.83467
H         15.22283        4.15523       23.31759
C         16.28022        0.65885       21.66369
H         17.25160        1.09918       21.86956
H         16.22422       -0.29477       22.18273
C         15.16457       -1.18417       19.67900
C         13.90747       -1.02239       20.53457
H         13.18493       -1.80037       20.28899
H         13.45259       -0.05029       20.34774
H         14.13787       -1.09600       21.59349
C         14.72203       -1.29431       18.21949
H         14.08924       -2.17083       18.08151
H         15.56785       -1.37577       17.54315
H         14.14748       -0.40499       17.95143
C         15.90706       -2.44604       20.10901
H         15.21453       -3.28828       20.10719
H         16.30447       -2.34651       21.11721
H         16.72052       -2.68699       19.42967
C         17.93971        0.20342       19.34346
C         18.47130        1.63934       19.27309
H         19.54029        1.64336       19.06299
H         18.30521        2.16425       20.21311
H         17.96312        2.19164       18.48427
C         18.08523       -0.44115       17.96567
H         19.11977       -0.35334       17.63283
H         17.45767        0.04910       17.22935
H         17.83699       -1.49912       17.99255
C         18.78672       -0.59235       20.33928
H         19.80890       -0.65141       19.96480
H         18.41970       -1.60599       20.46197
H         18.82359       -0.11822       21.31565
C         15.57408        1.85847       17.43531
