56
CSD_code = HIZVER | q = 0 | S = 0 | Stoichiometry = C19H29ClNO2PSi2W | MND = 9
W          2.48468        2.50685        1.03618
Cl         0.73198        4.09702        1.77521
C          3.53026        1.22944        2.08718
O          4.07070        0.42183        2.72359
C          1.37632        1.19431        1.97494
O          0.78427        0.31765        2.44020
C          1.97927        3.58387       -1.02671
C          3.37812        3.63296       -0.87946
C          3.85750        2.29935       -0.82714
C          2.73868        1.42378       -0.97786
C          1.57696        2.22678       -1.08650
P          3.16328        3.89136        2.93536
N          4.44469        3.44123        3.92674
Si         3.94609        2.70172        5.45788
C          5.37170        1.70014        6.20925
C          3.48742        4.13020        6.64649
C          2.43950        1.56689        5.21145
Si         6.09923        3.56916        3.33021
C          7.04846        4.76178        4.47869
C          6.99350        1.88670        3.25314
C          6.03283        4.28148        1.57039
C          3.43823        5.67389        2.65833
C          3.11068        6.30081        1.46485
C          3.32534        7.65867        1.30663
C          3.86908        8.40064        2.34139
C          4.18658        7.78255        3.54074
C          3.96988        6.42688        3.69992
H          1.32635        4.43273       -1.18779
H          3.99307        4.51967       -0.95151
H          4.89729        1.99712       -0.87285
H          2.79393        0.35642       -1.15257
H          0.58159        1.87684       -1.32503
H          2.21552        4.06523        3.94165
H          5.07694        1.36239        7.19625
H          6.27788        2.28309        6.31752
H          5.60191        0.82309        5.61728
H          3.13909        3.73316        7.59464
H          2.69499        4.75602        6.24466
H          4.34034        4.76880        6.85847
H          1.86675        1.47089        6.12876
H          2.73548        0.56771        4.90728
H          1.77322        1.95680        4.44304
H          6.88383        4.52515        5.52440
H          6.75859        5.79601        4.32282
H          8.11366        4.68853        4.28803
H          7.49274        1.66139        4.18820
H          7.75483        1.90422        2.47932
H          6.31680        1.06881        3.03335
H          5.18323        3.84581        1.04976
H          6.93082        4.04369        1.00892
H          5.91673        5.36043        1.56502
H          2.66533        5.72796        0.66482
H          3.06551        8.14030        0.37491
H          4.03885        9.45996        2.21643
H          4.59935        8.36219        4.35392
H          4.21359        5.93383        4.62831
