109
CSD_code = HOBKIT | q = 0 | S = 0 | Stoichiometry = C42H60N4Si2Ti | MND = 6
C         -2.05226        4.38581        2.66262
C          1.04138        3.93591        2.42663
H          1.80549        3.38676        1.88384
H          1.01817        3.55097        3.44112
H          1.35610        4.97362        2.47026
C         -0.59608        4.80139       -0.04508
H         -1.49217        4.66833       -0.64414
H          0.25391        4.52147       -0.66043
H         -0.50547        5.86151        0.17754
C         -0.87549        1.92175        1.08016
H         -1.14739        1.31771        1.93958
H          0.04525        1.51722        0.67066
H         -1.64773        1.79291        0.32867
C         -2.27584        7.79913        2.20828
C         -1.68154        8.93434        1.61283
H         -1.10486        9.60851        2.22918
C         -1.84497        9.13703        0.26362
H         -1.39904        9.99701       -0.21505
C         -2.59745        8.22933       -0.48692
H         -2.75740        8.38182       -1.54169
C         -3.11554        7.11724        0.14712
H         -3.68417        6.37413       -0.40357
C         -1.77702        8.30534        4.50551
C         -0.62151        7.93386        5.21840
C         -0.16398        8.74537        6.24295
H          0.71692        8.46548        6.79904
C         -0.81795        9.92105        6.56420
H         -0.44364       10.55156        7.35722
C         -1.96004       10.27673        5.87560
H         -2.47653       11.18587        6.14627
C         -2.45912        9.48558        4.84986
C         -3.75858        9.87687        4.18172
H         -3.99097        9.14307        3.39909
C         -4.89679        9.84615        5.20682
H         -4.97961        8.85564        5.65206
H         -5.84343       10.08999        4.72932
H         -4.72132       10.56565        6.00316
C         -3.66210       11.25517        3.52441
H         -3.41943       12.02014        4.25790
H         -4.61104       11.52003        3.06175
H         -2.89380       11.25922        2.75465
C         -0.58521        5.52838        5.75987
H         -0.45659        5.76322        6.81583
H         -0.11801        4.56916        5.55273
H         -1.65243        5.45000        5.52918
C          0.04990        6.62052        4.89216
H         -0.16685        6.37608        3.84195
C          1.56521        6.65075        5.08651
H          1.82713        6.70587        6.14049
H          2.00280        7.50493        4.57417
H          2.00607        5.74260        4.68312
N         -2.25014        7.45468        3.49925
N         -2.94476        6.88059        1.44578
Si        -0.66510        3.76761        1.56613
Ti        -3.38719        5.86676        3.16390
C         -2.77207        3.97027        3.66540
C         -3.92916        1.06614        3.90128
H         -3.83594        0.12990        4.44424
H         -3.58395        0.89359        2.88690
H         -4.98512        1.31259        3.85732
C         -3.86018        2.91704        6.37306
H         -3.29704        3.62667        6.97215
H         -4.04271        2.04096        6.98842
H         -4.82364        3.36846        6.15028
C         -1.22653        1.71940        5.24797
H         -0.56677        1.65445        4.38890
H         -1.33645        0.71909        5.65585
H         -0.72979        2.32284        6.00080
C         -5.61636        5.87050        4.11950
C         -6.89663        5.92340        4.71495
H         -7.76882        5.76106        4.09859
C         -6.99045        6.16626        6.06417
H         -7.95819        6.21002        6.54284
C         -5.82813        6.36408        6.81471
H         -5.88022        6.57884        7.86948
C         -4.60599        6.25676        6.18066
H         -3.67812        6.37766        6.73136
C         -6.30418        5.69168        1.82228
C         -6.56025        4.50525        1.10938
C         -7.49181        4.51480        0.08484
H         -7.68988        3.61199       -0.47127
C         -8.18298        5.66902       -0.23639
H         -8.91618        5.66013       -1.02940
C         -7.91995        6.83592        0.45224
H         -8.44905        7.73778        0.18160
C         -6.98526        6.87252        1.47797
C         -6.67439        8.19351        2.14616
H         -5.92272        8.02784        2.92880
C         -6.07868        9.16390        1.12111
H         -5.17944        8.74040        0.67588
H         -5.81656       10.10563        1.59864
H         -6.78950        9.37171        0.32476
C         -7.91629        8.79907        2.80349
H         -8.70009        8.97145        2.07000
H         -7.67119        9.75328        3.26621
H         -8.30396        8.13569        3.57320
C         -4.49518        3.27108        0.56792
H         -4.76284        3.27719       -0.48805
H         -3.89813        2.38681        0.77503
H         -3.89365        4.15609        0.79869
C         -5.75857        3.26712        1.43559
H         -5.43853        3.33258        2.48581
C         -6.54241        1.96994        1.24119
H         -6.72106        1.77070        0.18719
H         -7.50097        2.01806        1.75350
H         -5.97637        1.13406        1.64458
N         -5.33092        5.67606        2.82852
N         -4.48643        5.99055        4.88200
Si        -2.93033        2.45987        4.76192
