88
CSD_code = HOBYOP | q = 0 | S = 0 | Stoichiometry = C36H48ClNSiTi | MND = 12
Ti         4.90929        6.89553        2.73030
Cl         7.80049       13.17107        7.40397
Si         7.92964        5.08999        2.33759
N          5.11790        8.33604        3.90433
C          5.36657        7.41347        0.46617
C          5.07351        8.61113        1.17928
C          3.70468        8.56421        1.57059
C          3.14352        7.37016        1.05594
C          4.16702        6.65175        0.39249
C          6.58602        7.18667       -0.38094
H          7.45451        7.69869        0.02631
H          6.40428        7.57776       -1.38605
H          6.82786        6.13137       -0.46595
C          5.96122        9.81078        1.34455
H          6.11501       10.03287        2.40339
H          5.49764       10.68008        0.87414
H          6.93044        9.64968        0.87768
C          2.95559        9.70557        2.19327
H          2.11165        9.35514        2.78725
H          2.56688       10.36834        1.41534
H          3.61793       10.28369        2.83549
C          1.67759        7.06339        0.95206
H          1.46899        5.99929        1.05181
H          1.31608        7.37623       -0.03163
H          1.10022        7.60400        1.69963
C          3.92415        5.47016       -0.50386
H          4.84287        5.15159       -0.99012
H          3.21113        5.74750       -1.28415
H          3.50384        4.61562        0.02946
C          3.92888        6.30880        4.85153
C          4.98072        5.39394        4.63756
H          5.82892        5.23473        5.28851
C          4.67039        4.60921        3.50829
H          5.20559        3.72595        3.19407
C          3.43819        5.04950        3.00351
H          2.85471        4.54475        2.24459
C          2.99397        6.12137        3.80912
H          2.02939        6.60150        3.72120
C          3.96153        7.44155        5.86015
C          2.54030        7.98474        6.13284
H          2.13200        8.39731        5.20227
C          2.53552        9.07878        7.20195
H          1.51018        9.43277        7.34035
H          3.14146        9.92861        6.89116
C          3.07355        8.52913        8.52077
H          3.07515        9.32598        9.27324
C          4.49958        8.03501        8.30019
H          4.88821        7.60510        9.22734
H          5.14012        8.87395        8.03418
C          4.51853        6.95459        7.21680
H          5.54792        6.60565        7.08176
C          1.65092        6.83858        6.63047
H          0.63791        7.21406        6.79806
H          1.59564        6.03934        5.89171
C          2.20295        7.37103        9.00012
H          1.17990        7.71428        9.17185
H          2.58773        6.98093        9.94523
C          3.64614        5.79090        7.70389
H          3.64664        4.98544        6.96719
H          4.05516        5.39546        8.63689
C          2.21539        6.27816        7.93447
H          1.59568        5.43661        8.26511
C          4.86471        8.46954        5.12015
C          5.53026        9.63281        5.77935
C          5.01987       10.92054        5.65179
H          4.07633       11.07664        5.14888
C          5.70987       12.00983        6.15341
H          5.30336       13.00504        6.06308
C          6.93547       11.81403        6.76768
C          7.48403       10.54499        6.86472
H          8.45036       10.40759        7.32404
C          6.78355        9.46372        6.36402
H          7.21215        8.47427        6.42544
C          7.01300        6.65843        2.86336
H          7.44804        7.51714        2.33932
H          7.24984        6.82501        3.92402
C          9.60645        5.50700        1.49858
H          9.46728        6.06720        0.57916
H         10.15799        4.60545        1.25050
H         10.23455        6.10432        2.15186
C          6.99488        3.94451        1.10068
H          5.97045        4.27138        0.94192
H          6.96062        2.92176        1.46609
H          7.49133        3.91489        0.13476
C          8.37429        4.00202        3.85682
H          8.94542        4.56666        4.58765
H          8.97910        3.14955        3.56192
H          7.49169        3.61701        4.35792
