97
CSD_code = HOLMOM | q = 0 | S = 0 | Stoichiometry = C34H58N2Si2Zr | MND = 4
Zr         1.11577       -6.00403       -4.33046
Si         4.25663       -7.17773       -4.16684
Si        -1.45485       -3.98957       -4.75181
N          0.41403       -7.82240       -5.03349
N          0.39145       -6.61787       -2.50026
C         -0.09705       -6.08719       -1.31552
C         -0.98841       -9.46559       -6.22226
C          0.37342       -5.51624       -8.23012
H          0.12045       -5.82895       -9.24106
H          0.93807       -4.58686       -8.29530
H         -0.55323       -5.32699       -7.68998
C          1.78663       -4.36746       -1.38222
H          1.93859       -4.86493       -2.36600
C         -3.29051       -9.59644       -5.27080
H         -3.43886       -8.55483       -5.54626
H         -3.86930       -9.80344       -4.37241
H         -3.67284      -10.22092       -6.07418
C          0.54937       -8.58324       -3.86920
H          0.72137       -9.65413       -3.96346
C         -1.80498       -9.86948       -5.01007
H         -1.51424       -9.24936       -4.15928
C          1.20191       -6.60142       -7.52832
H          1.42168       -6.25235       -6.49159
C          1.60227       -2.86663       -1.63066
H          0.67092       -2.67888       -2.15937
H          2.43150       -2.47887       -2.22114
H          1.57547       -2.32059       -0.69041
C         -2.12787       -7.65457       -1.31881
H         -1.70200       -7.92697       -2.28810
C         -1.59347      -11.33546       -4.62643
H         -1.93489      -11.99807       -5.41797
H         -2.14938      -11.57038       -3.72068
H         -0.54039      -11.54047       -4.44550
C         -1.27406      -10.09158       -7.42454
H         -1.96089      -10.92503       -7.43261
C         -3.52832       -7.09099       -1.58022
H         -4.04795       -6.88177       -0.64852
H         -4.11834       -7.80864       -2.14703
H         -3.46168       -6.16802       -2.15136
C          3.87019       -7.60385       -2.33467
H          4.53426       -7.07151       -1.66099
H          4.00131       -8.66382       -2.13892
H          2.84402       -7.34341       -2.07714
C          0.06612       -8.53473       -8.62007
H          0.43279       -8.15193       -9.56108
C          0.40851       -3.97378       -4.97021
H          0.87775       -3.17431       -4.38439
H          0.68296       -3.79215       -6.01747
C         -2.47437       -2.93845       -5.99749
H         -2.23938       -1.88366       -5.89925
H         -3.54248       -3.05052       -5.84081
H         -2.26326       -3.22380       -7.02364
C          3.32544       -5.61480       -4.62324
H          3.52677       -5.33145       -5.66712
H          3.66678       -4.77226       -4.00287
C          0.11487       -4.46605        0.47506
H          0.63312       -3.63215        0.92449
C         -0.05275       -8.39677       -6.19656
C         -0.72592       -9.66753       -8.61932
H         -0.95027      -10.18208       -9.54118
C         -1.65607       -6.05824        0.53415
H         -2.53060       -6.45890        1.02501
C          3.02767       -4.60415       -0.51371
H          2.95093       -4.05061        0.41962
H          3.92548       -4.27736       -1.03510
H          3.12828       -5.65896       -0.27230
C         -2.02832       -5.81644       -4.95511
H         -1.68507       -6.25239       -5.89492
H         -3.11222       -5.90349       -4.94046
H         -1.63807       -6.42126       -4.13203
C         -1.25232       -6.59879       -0.67641
C          0.56431       -4.97971       -0.72910
C          0.51482       -8.00048       -2.64392
H          0.61911       -8.60498       -1.74261
C         -0.97862       -5.00889        1.12360
H         -1.30851       -4.60712        2.06969
C          2.53386       -6.79317       -8.26171
H          3.11393       -7.58728       -7.80056
H          3.11657       -5.87369       -8.23051
H          2.36828       -7.05191       -9.30467
C         -1.98507       -3.44988       -2.99014
H         -1.48622       -4.04539       -2.22965
H         -3.05527       -3.56681       -2.84946
H         -1.75350       -2.40565       -2.80497
C          0.40001       -7.88636       -7.44435
C          3.69823       -8.65429       -5.26145
H          2.65966       -8.56005       -5.57228
H          3.79747       -9.59366       -4.72545
H          4.31085       -8.73612       -6.15443
C         -2.21026       -8.92466       -0.46969
H         -1.21847       -9.33763       -0.29867
H         -2.81216       -9.67592       -0.97737
H         -2.66375       -8.71838        0.49681
C          6.17307       -7.11660       -4.30880
H          6.48495       -6.90487       -5.32683
H          6.62777       -8.05823       -4.01742
H          6.59088       -6.34194       -3.67345
