33
CSD_code = HOLXEM | q = 0 | S = 0 | Stoichiometry = C11H16N2O2SiW | MND = 8
W          6.54160        1.62077        4.84193
Si         5.14244        2.59426        0.10483
N          5.40838        1.64051        3.41090
N          4.59278        1.54206        2.55728
O          8.58057       -0.00600        3.14048
O          8.19110        3.96181        3.60597
C          7.14714        1.78661        7.09742
H          8.06338        2.14319        7.55285
C          6.81439        0.43515        6.85987
H          7.45657       -0.41591        7.04953
C          5.45283        0.37002        6.47875
H          4.86999       -0.53632        6.37197
C          4.93071        1.68944        6.50941
H          3.88528        1.95429        6.40716
C          5.97215        2.56524        6.88572
H          5.86094        3.61318        7.13642
C          7.81096        0.58520        3.76094
C          7.57729        3.09529        4.05380
C          4.04482        2.54152        1.71132
H          4.03302        3.51295        2.21661
H          3.02358        2.25293        1.46940
C          6.94253        2.82928        0.66156
H          7.63139        2.76078       -0.17450
H          7.22460        2.06813        1.38784
H          7.09616        3.79582        1.13244
C          4.51591        4.04861       -0.95829
H          4.63333        4.99885       -0.44630
H          3.46599        3.93852       -1.21210
H          5.07166        4.10902       -1.88816
C          4.90141        0.92322       -0.77632
H          5.53096        0.85095       -1.65766
H          3.87362        0.77795       -1.09618
H          5.16201        0.09977       -0.11787
