69
CSD_code = HUCMIB | q = 0 | S = 0 | Stoichiometry = C26H37MoN3Si2 | MND = 7
Mo         4.16159        2.35808        3.79685
Si         6.33883        2.92984        1.30148
Si         4.55197        3.82744        6.78963
N          3.47875        3.89321        3.31667
N          6.00535        2.64087        2.98649
N          5.23302        3.02554        5.40154
C          3.27213        5.17691        3.00638
C          4.30918        6.09890        3.24976
H          5.22446        5.71111        3.68141
C          4.14415        7.43006        2.94027
H          4.94695        8.12877        3.12991
C          2.95435        7.88243        2.38407
H          2.83054        8.92778        2.14326
C          1.92686        6.98584        2.13915
H          1.00010        7.33521        1.70590
C          2.07536        5.64797        2.44419
H          1.27655        4.94305        2.25548
C          7.02116        2.67472        3.91729
C          6.59625        2.89735        5.24771
C          7.54408        2.96805        6.26083
H          7.22806        3.14696        7.27597
C          8.89205        2.80433        5.97820
H          9.61476        2.85316        6.77971
C          9.30586        2.57763        4.67939
H         10.35492        2.44573        4.45771
C          8.37562        2.51884        3.65229
H          8.70335        2.34143        2.64114
C          7.24695        4.60040        1.09566
H          6.56254        5.42719        1.26187
H          7.66031        4.70463        0.09751
H          8.06062        4.69919        1.80672
C          4.68982        3.02967        0.34417
H          4.41110        2.07745       -0.09487
H          4.77880        3.74064       -0.46960
H          3.88258        3.36370        0.98861
C          7.35005        1.51335        0.47622
H          8.40384        1.76414        0.40619
H          6.99947        1.32617       -0.53459
H          7.27513        0.58169        1.03079
C          5.36289        5.54642        7.01200
H          6.42382        5.51559        6.78669
H          5.24819        5.90962        8.02818
H          4.90687        6.27250        6.34575
C          2.67778        4.06661        6.51980
H          2.44053        4.17620        5.46647
H          2.34306        4.96321        7.02933
H          2.09601        3.24085        6.91507
C          4.68098        2.83692        8.43625
H          4.24453        1.84523        8.35630
H          4.13934        3.36364        9.21608
H          5.70184        2.71459        8.78221
C          2.70882        0.73370        2.83529
C          2.30562        0.95280        4.14426
H          1.25598        1.13661        4.36852
C          3.26035        0.92840        5.21540
H          2.89011        0.96049        6.23527
C          4.50108        0.20794        4.97978
C          4.90203        0.01530        3.69120
H          5.82603       -0.51216        3.47270
C          4.10339        0.50718        2.58433
H          4.40516        0.21551        1.58333
C          1.73337        0.74585        1.69298
H          1.55219       -0.27510        1.35008
H          2.13117        1.31626        0.85433
H          0.78094        1.18114        1.99120
C          5.30119       -0.27039        6.15469
H          6.15035       -0.86909        5.83032
H          4.67988       -0.87163        6.82003
H          5.68049        0.58088        6.72074
