67
CSD_code = HUNHON | q = 0 | S = 0 | Stoichiometry = C21H41N2PSiTi | MND = 8
Ti         5.45168        0.93998       11.45039
P          6.13448        2.81430       12.92499
Si         6.57275        3.77142       10.92763
N          4.55050       -0.09143       12.67129
N          6.92631       -0.15778       11.23289
C          5.24024        2.76280       10.05493
C          5.49189        1.68300        9.16338
C          4.42685        0.76018        9.27110
C          3.48752        1.27665       10.21394
C          3.98611        2.50450       10.69562
C          3.22342        3.48096       11.54389
C          2.11512        0.70840       10.44007
C          4.16081       -0.45437        8.42501
C          6.55238        1.70605        8.09568
C          8.34125        3.37024       10.28891
C          6.33631        5.67173       10.80914
C          7.82055        2.66433       13.74347
C          7.65339        1.98842       15.10498
C          8.99992        1.84759       15.80853
C          9.64113        3.21881       16.00059
C          9.78613        3.93126       14.65930
C          8.43324        4.04715       13.96157
C          3.77460        0.39545       13.78148
C          4.35189       -1.50522       12.47838
C          7.62073       -0.62362       12.41201
C          7.40981       -0.88368       10.08501
H          2.59514        4.11102       10.90767
H          3.89938        4.13098       12.09956
H          2.57341        2.96998       12.25487
H          1.69021        1.06168       11.37905
H          2.13604       -0.38185       10.45392
H          1.44454        1.01856        9.63274
H          4.94929       -0.61353        7.69071
H          3.21932       -0.33318        7.88358
H          4.07836       -1.35712        9.03579
H          7.54089        1.43182        8.46237
H          6.61920        2.71377        7.68382
H          6.29413        1.03166        7.27890
H          8.47060        3.63757        9.24614
H          8.55077        2.30892       10.40783
H          9.08231        3.92166       10.85770
H          6.43557        6.01230        9.78403
H          7.08329        6.18593       11.40360
H          5.36060        5.97801       11.16858
H          8.48613        2.06439       13.10974
H          7.18018        1.00836       14.98955
H          6.98435        2.60210       15.71528
H          8.86666        1.36016       16.77728
H          9.65900        1.21831       15.20492
H         10.61966        3.11214       16.47492
H          9.01240        3.82022       16.66116
H         10.47216        3.36692       14.02232
H         10.21246        4.92587       14.81088
H          8.54883        4.56344       13.00711
H          7.75025        4.63995       14.57513
H          2.69268        0.23708       13.62194
H          3.96174        1.46351       13.92838
H          4.04563       -0.13446       14.71093
H          4.67935       -2.07962       13.36250
H          4.91841       -1.84942       11.60771
H          3.28324       -1.74002       12.32099
H          7.56637       -1.72423       12.49781
H          7.17316       -0.18167       13.30499
H          8.69189       -0.35748       12.37448
H          8.47443       -0.66137        9.88730
H          6.83259       -0.64731        9.19359
H          7.34268       -1.97458       10.25478
