119
CSD_code = IDENUA | q = 0 | S = 0 | Stoichiometry = C31H76LaN5Si6 | MND = 4
La         2.47759        2.66984       -5.02892
Si         1.39183        7.57899       -3.56339
Si         3.93248        7.68298       -5.46243
Si         4.83454        1.85898       -7.59251
Si         2.10441        0.55762       -7.78128
Si         0.04732        1.52075       -2.67415
Si         2.66344       -0.00374       -2.79947
N          1.82744        4.89910       -5.64975
N          3.28499        4.67011       -3.96970
N          2.63428        6.88540       -4.59103
N          3.24704        1.57589       -7.00243
N          1.61271        1.24863       -3.32496
C          1.15803        5.64383       -6.70004
C          1.83910        5.32966       -8.04094
C          1.11133        5.97679       -9.21551
C         -0.34932        5.54166       -9.25329
C         -1.03173        5.89827       -7.93708
C         -0.31628        5.22633       -6.76948
C          2.58230        5.48667       -4.73668
C          3.99997        5.13216       -2.79453
C          3.29464        4.59122       -1.54134
C          4.06104        4.92905       -0.26596
C          5.48866        4.39871       -0.33596
C          6.19780        4.97645       -1.55602
C          5.44259        4.61222       -2.83021
C          0.48858        8.98491       -4.48575
C          0.13255        6.23723       -3.06513
C          2.13785        8.32323       -1.96927
C          3.25254        8.79718       -6.85793
C          5.09181        6.38561       -6.24222
C          4.93310        8.79232       -4.27446
C          5.85305        2.59470       -6.13436
C          5.75531        0.29520       -8.19820
C          4.92407        3.12690       -9.02953
C          1.79664        0.97019       -9.62766
C          2.50200       -1.31332       -7.68190
C          0.44786        0.82488       -6.83993
C         -0.90343        2.61878       -3.93696
C         -0.99289       -0.06123       -2.39909
C          0.04766        2.46347       -1.00324
C          2.13382       -1.76466       -3.33582
C          2.95984       -0.05482       -0.90683
C          4.35286        0.35062       -3.64894
H          1.21612        6.72231       -6.50438
H          2.87016        5.68467       -8.00398
H          1.86499        4.24054       -8.16447
H          1.15714        7.06491       -9.11983
H          1.60810        5.70345      -10.14889
H         -0.86296        6.02786      -10.08552
H         -0.40267        4.46200       -9.40880
H         -2.07703        5.58225       -7.95970
H         -1.01381        6.98247       -7.80147
H         -0.36104        4.13871       -6.89392
H         -0.80958        5.48244       -5.83053
H          4.01549        6.22909       -2.76002
H          2.29019        5.01459       -1.49224
H          3.19414        3.50454       -1.64682
H          4.08955        6.01380       -0.13259
H          3.54405        4.50109        0.59557
H          5.46801        3.30934       -0.41032
H          6.03143        4.66427        0.57382
H          7.21947        4.59416       -1.61130
H          6.25304        6.06381       -1.46209
H          5.95461        5.02569       -3.70047
H          5.41414        3.52214       -2.93605
H          0.13910        8.68607       -5.46869
H         -0.37725        9.30266       -3.91375
H          1.12845        9.85236       -4.60790
H          0.55069        5.24218       -3.18987
H         -0.76931        6.29269       -3.66657
H         -0.16830        6.34733       -2.02738
H          1.37067        8.86818       -1.42787
H          2.94063        9.02018       -2.18124
H          2.52812        7.56304       -1.30057
H          2.80363        8.22484       -7.66314
H          2.50788        9.49614       -6.49469
H          4.06180        9.38012       -7.28672
H          4.60499        5.41674       -6.31212
H          5.99777        6.25713       -5.65826
H          5.39599        6.68139       -7.24205
H          5.26142        8.26510       -3.38458
H          4.35596        9.65466       -3.95824
H          5.81867        9.16584       -4.77838
H          6.62504        3.26402       -6.50128
H          5.21078        3.17095       -5.45675
H          6.34739        1.81672       -5.56009
H          5.70297       -0.50373       -7.46668
H          6.80312        0.49593       -8.39683
H          5.31056       -0.07204       -9.11633
H          4.28620        2.82209       -9.85141
H          5.93465        3.22055       -9.41476
H          4.59951        4.11187       -8.71142
H          1.55961        2.01981       -9.76863
H          2.68440        0.75596      -10.21233
H          0.98111        0.38730      -10.04321
H          3.32535       -1.56958       -8.33865
H          1.65079       -1.92269       -7.96869
H          2.78789       -1.59624       -6.67395
H         -0.34756        0.22338       -7.27182
H          0.54285        0.52760       -5.79232
H          0.12491        1.86806       -6.89664
H         -1.45438        2.01708       -4.65382
H         -1.62212        3.25610       -3.43110
H         -0.21397        3.27045       -4.48810
H         -1.01011       -0.68354       -3.28717
H         -2.01981        0.17174       -2.13678
H         -0.57323       -0.65281       -1.59313
H          0.44428        3.46705       -1.11389
H         -0.95398        2.54750       -0.59322
H          0.66008        1.94870       -0.27164
H          1.86238       -1.78448       -4.38644
H          1.27215       -2.09911       -2.76961
H          2.92784       -2.48910       -3.18463
H          2.04299       -0.31930       -0.39178
H          3.71331       -0.78625       -0.63321
H          3.28025        0.90979       -0.52656
H          5.10314       -0.37443       -3.34495
H          4.73372        1.33815       -3.37382
H          4.26207        0.28314       -4.73605
