131
CSD_code = IFEGUX | q = 0 | S = 0 | Stoichiometry = C47H74N7OScSi | MND = 5
Sc        -0.23969       14.79777       17.99100
Si         1.27677       12.22679       12.82194
N         -0.60159       16.71178       17.03817
N          1.30625       15.91409       19.05066
N          0.96677       13.11428       19.42463
N          1.14255       13.08206       23.18081
N         -2.01591       14.08298       18.72984
H         -2.26788       13.35590       18.05387
N          2.92468       12.37920       16.18552
N          2.08828       12.51791       15.42359
O          0.00518       13.72070       16.50703
C         -1.00970       19.14611       17.00236
H         -0.22496       19.86995       16.78830
H         -1.69659       19.60233       17.71385
H         -1.54357       18.92841       16.08100
C         -0.41984       17.88892       17.60885
C          0.33641       18.08448       18.76679
H          0.33266       19.09310       19.15476
C          1.21630       17.18926       19.38634
C          2.12306       17.77772       20.44217
H          2.00914       17.24740       21.38721
H          1.89659       18.82696       20.60610
H          3.16595       17.69440       20.13670
C          2.38192       15.14594       19.65590
H          2.34430       15.20101       20.75378
H          3.36071       15.54201       19.34253
C          2.30678       13.68333       19.22311
H          2.53398       13.60595       18.15129
H          3.07870       13.11101       19.76336
C          0.49444       13.17572       20.81760
H          0.41820       14.22453       21.11211
H         -0.51539       12.75946       20.82620
C          1.34287       12.45711       21.88260
H          2.40444       12.55623       21.64428
H          1.10019       11.37997       21.91242
C          0.97665       11.72588       18.96719
H          1.25274       11.69959       17.91471
H         -0.01602       11.29570       19.09016
H          1.70132       11.11740       19.52512
C         -1.03704       16.65222       15.69266
C         -2.35720       16.30083       15.36702
C         -2.71648       16.19791       14.02947
H         -3.73210       15.93922       13.76970
C         -1.79971       16.43375       13.02383
H         -2.09216       16.34415       11.98766
C         -0.50498       16.79826       13.34810
H          0.19737       16.99428       12.55306
C         -0.10611       16.92825       14.66900
C          1.31616       17.31587       15.01841
H          1.30137       17.85570       15.97042
C          1.96704       18.23150       13.98080
H          2.89603       18.63339       14.38029
H          1.31089       19.06339       13.73386
H          2.20626       17.69156       13.06774
C          2.15736       16.05091       15.21877
H          1.71980       15.43426       16.01122
H          3.17471       16.31362       15.50335
H          2.19230       15.46678       14.30027
C         -3.39163       16.08654       16.44880
H         -2.86284       15.97856       17.40809
C         -4.32657       17.29817       16.53005
H         -4.82526       17.45942       15.57586
H         -3.77384       18.19840       16.78481
H         -5.08648       17.13501       17.29139
C         -4.20775       14.81180       16.22700
H         -4.88059       14.90954       15.37755
H         -4.80905       14.60802       17.11078
H         -3.54659       13.96575       16.05217
C         -0.15775       13.31197       15.21734
H         -0.42452       14.16051       14.55519
C         -1.23716       12.25272       15.08224
C         -1.13240       11.05522       15.77821
H         -0.26713       10.88124       16.40035
C         -2.11666       10.09022       15.66940
H         -2.02080        9.15979       16.21073
C         -3.21940       10.31087       14.86077
H         -3.98696        9.55589       14.77080
C         -3.33272       11.50282       14.16616
H         -4.19225       11.68084       13.53612
C         -2.34726       12.46911       14.27723
H         -2.43687       13.40176       13.73831
C          2.14326       12.64487       24.13373
H          2.10429       11.56154       24.32878
H          1.98909       13.17024       25.07479
H          3.13512       12.89442       23.75775
C         -0.19320       12.84985       23.69833
H         -0.40535       11.77922       23.84311
H         -0.93634       13.26215       23.02008
H         -0.28878       13.35330       24.65896
C         -2.57070       13.76155       19.93322
C         -3.14446       12.48305       20.19526
C         -3.78140       12.24683       21.40034
H         -4.24118       11.28609       21.57991
C         -3.84777       13.21036       22.38935
H         -4.35193       13.00540       23.32194
C         -3.25630       14.44189       22.16475
H         -3.30847       15.19410       22.93807
C         -2.62009       14.73178       20.97365
C         -2.03257       16.10914       20.75287
H         -1.33274       16.04645       19.89936
C         -1.25734       16.63713       21.96214
H         -1.92949       16.89328       22.77769
H         -0.71238       17.53629       21.68211
H         -0.54741       15.89752       22.32673
C         -3.14508       17.09363       20.37885
H         -3.68692       16.73166       19.50963
H         -2.72693       18.07182       20.14904
H         -3.84820       17.19810       21.20321
C         -3.08422       11.36995       19.16537
H         -2.28141       11.58277       18.44715
C         -2.75732       10.00989       19.79007
H         -1.90517       10.08874       20.46309
H         -2.51595        9.29280       19.00718
H         -3.60097        9.61721       20.35156
C         -4.40089       11.29078       18.38731
H         -4.34975       10.51466       17.62574
H         -4.61030       12.23848       17.89678
H         -5.22344       11.06615       19.06334
C          1.14594       12.71730       14.63084
C          0.39163       13.53374       11.75564
H          0.58249       13.37090       10.69928
H          0.71620       14.53994       12.00005
H         -0.68187       13.49247       11.90606
C          0.48365       10.51446       12.52393
H          0.95963        9.74661       13.12694
H          0.57125       10.21548       11.48369
H         -0.57187       10.52143       12.77898
C          3.13270       12.15862       12.38551
H          3.66313       11.46717       13.03291
H          3.60672       13.12985       12.48934
H          3.28110       11.82824       11.36264
