99
CSD_code = IFOQOJ | q = 0 | S = 0 | Stoichiometry = C43H49NOOsP2Si2 | MND = 6
Os         9.17763       10.82838       10.10870
H          9.22707       11.62023        8.69736
P         10.15646        9.00452        8.96534
P          6.93138       10.22176        9.66977
Si        11.24632       12.00584       10.56441
Si         8.52966       12.91402       11.14541
O          9.36090        9.48294       12.83187
N         10.29367       13.71372       10.87224
C          9.25126        9.96573       11.77935
C         12.66877       12.59672        9.39338
H         13.14742       13.50208        9.75687
H         12.32662       12.77406        8.37971
H         13.43068       11.82696        9.34530
C         12.23732       11.79947       12.21321
H         12.89465       12.63897       12.41616
H         12.86029       10.91462       12.13327
H         11.58804       11.65619       13.07076
C         10.28646       14.51988        9.66442
H          9.63257       15.38384        9.78520
H          9.92692       13.91750        8.83574
H         11.28937       14.87619        9.43078
C         10.80514       14.52832       11.95519
H         10.18096       15.41324       12.09839
H         11.82227       14.85997       11.73554
H         10.81645       13.95443       12.87411
C          8.29212       13.15164       13.05138
H          8.42454       14.18237       13.36422
H          8.96534       12.52945       13.63223
H          7.27963       12.86409       13.31358
C          7.30039       14.26902       10.50720
H          7.47001       15.23238       10.98042
H          6.28991       13.95852       10.75581
H          7.33865       14.40674        9.43214
C          9.60930        8.56121        7.26181
C          9.23565        9.60297        6.41617
H          9.29115       10.61930        6.77944
C          8.77682        9.35012        5.13711
H          8.48200       10.17156        4.49990
C          8.68604        8.04619        4.67994
H          8.32144        7.84257        3.68367
C          9.05886        7.00325        5.51094
H          8.98806        5.98281        5.16145
C          9.51514        7.25387        6.79326
H          9.77707        6.42341        7.43168
C         10.25206        7.33493        9.72648
C          9.33612        6.96988       10.70267
H          8.58427        7.67793       11.01818
C          9.37665        5.71296       11.27958
H          8.65422        5.44885       12.03795
C         10.34151        4.80320       10.88666
H         10.37920        3.82146       11.33589
C         11.26618        5.15827        9.91668
H         12.02479        4.45266        9.60864
C         11.22446        6.41277        9.33908
H         11.95333        6.68076        8.58611
C         11.94942        9.21870        8.65574
C         12.48140        9.56974        7.42290
H         11.82999        9.71135        6.57231
C         13.84960        9.72925        7.27774
H         14.25797        9.99746        6.31386
C         14.69421        9.54111        8.35760
H         15.76136        9.65889        8.23843
C         14.16621        9.20607        9.59618
H         14.82228        9.06480       10.44314
C         12.80279        9.05445        9.74524
H         12.38108        8.79812       10.70860
C          5.68670       10.94070       10.81222
C          4.53801       11.59425       10.38256
H          4.34015       11.71153        9.32737
C          3.64049       12.10775       11.30347
H          2.75470       12.61999       10.95606
C          3.86937       11.96531       12.66074
H          3.16272       12.36082       13.37543
C          5.01476       11.32007       13.09815
H          5.20335       11.20869       14.15650
C          5.92148       10.82505       12.18042
H          6.83338       10.35600       12.52311
C          6.46566        8.44876        9.78365
C          6.80963        7.63504        8.70510
H          7.22186        8.08922        7.81491
C          6.61136        6.27009        8.75741
H          6.88428        5.65637        7.91099
C          6.06562        5.69324        9.89305
H          5.91480        4.62471        9.94026
C          5.71068        6.49393       10.96474
H          5.27563        6.05106       11.84951
C          5.91069        7.86334       10.91604
H          5.62739        8.47257       11.76191
C          6.13311       10.63223        8.06651
C          6.55651       11.76941        7.38861
H          7.35223       12.36367        7.81470
C          5.97805       12.13258        6.18611
H          6.32114       13.01705        5.66822
C          4.96170       11.36307        5.64628
H          4.51328       11.63768        4.70247
C          4.51406       10.24329        6.32784
H          3.70886        9.64856        5.92048
C          5.08769        9.88160        7.53302
H          4.71435        9.01542        8.06090
