72
CSD_code = IGEDAZ | q = 0 | S = 0 | Stoichiometry = C24H44NSi2Y | MND = 13
Y          6.10632        2.20980        4.37742
Si         7.97748        2.81710        7.10469
Si         5.14095        3.90693        7.03363
N          6.44963        3.02851        6.33482
C          4.20358        0.46938        4.81402
C          4.49156        0.54665        3.41718
C          5.81835        0.03493        3.21608
C          6.33442       -0.34125        4.49571
C          5.32910       -0.09448        5.46876
C          2.87352        0.77640        5.44816
C          3.48473        0.81409        2.32930
C          6.41778       -0.36154        1.89356
C          7.63327       -1.06597        4.73411
C          5.42841       -0.45137        6.92461
C          5.55967        3.83607        1.96764
C          6.02405        3.18009        0.85003
C          7.39597        2.81863        1.05864
C          7.78644        3.24980        2.30784
C          6.63956        3.90627        2.96108
C          4.22210        4.49205        2.17337
C          5.28271        2.89686       -0.41832
C          8.23714        2.12449        0.03501
C          9.17533        3.23231        2.88973
C          6.86014        5.22685        3.70548
C          7.90350        2.37336        8.95478
C          9.13898        4.33010        6.97869
C          4.32162        3.07460        8.54189
C          5.55878        5.69006        7.56256
H          8.63855        1.67946        6.36652
H          4.10484        3.97508        5.92080
H          2.99799        1.13975        6.46677
H          2.24911       -0.12008        5.47883
H          2.33495        1.53696        4.88270
H          3.96381        1.21318        1.43814
H          2.72469        1.52234        2.65823
H          2.97732       -0.11359        2.05314
H          5.99904        0.23010        1.08418
H          6.20301       -1.41353        1.68911
H          7.50026       -0.23504        1.88912
H          7.99631       -0.89087        5.74606
H          8.40171       -0.74158        4.03027
H          7.49798       -2.14296        4.60428
H          5.91806       -1.41767        7.04245
H          4.43673       -0.52002        7.36639
H          6.00467        0.29296        7.47882
H          3.89113        4.39172        3.21329
H          3.46522        4.05084        1.52815
H          4.28058        5.55683        1.93672
H          4.23709        3.18269       -0.33676
H          5.33303        1.83951       -0.68333
H          5.72379        3.45881       -1.24210
H          9.11399        1.66778        0.48841
H          8.58059        2.83721       -0.71648
H          7.67174        1.34997       -0.48018
H          9.15724        3.05994        3.97165
H          9.67298        4.18738        2.70460
H          9.77984        2.45309        2.42815
H          7.62459        5.13812        4.47631
H          5.94139        5.57821        4.17555
H          7.18490        5.98616        2.98708
H          7.21600        1.55694        9.14840
H          7.57648        3.22392        9.54418
H          8.88023        2.07574        9.32280
H          9.41069        4.55885        5.95266
H         10.05998        4.15386        7.52518
H          8.67249        5.21578        7.39779
H          4.18428        2.00983        8.38651
H          3.34758        3.50879        8.74568
H          4.92763        3.19746        9.43346
H          6.05887        6.23761        6.77066
H          6.21428        5.69162        8.42754
H          4.66244        6.23989        7.83068
