66
CSD_code = IJEREV | q = 0 | S = 0 | Stoichiometry = C24H36Cl3OSiTa | MND = 9
Ta         5.43378        1.72493        4.79834
Cl         3.80550        1.54607        6.42165
Cl         3.86194        1.18377        3.31008
Cl         5.74443        3.74545        3.73182
Si         8.57264        0.58709        4.25800
O          6.72947        2.09170        5.94265
C          6.76026       -0.02493        4.13347
C          6.35254       -0.55410        2.81669
C          5.81282       -1.79152        2.97199
C          5.82873       -2.13593        4.37577
C          6.38993       -1.11310        5.07682
C          6.44969        0.20690        1.53287
H          5.49568        0.17532        1.00797
H          7.20189       -0.23096        0.87522
H          6.69730        1.24985        1.71536
C          5.24544       -2.67261        1.91092
H          5.55371       -2.33717        0.92487
H          4.15599       -2.65856        1.95396
H          5.57265       -3.70143        2.05042
C          5.28623       -3.41918        4.90812
H          4.26398       -3.56571        4.56191
H          5.28909       -3.42388        5.99417
H          5.88107       -4.26174        4.55315
C          6.62020       -1.08329        6.55988
H          7.32103       -0.30037        6.83832
H          7.02656       -2.03611        6.89743
H          5.68371       -0.91070        7.09512
C          8.94082        1.41907        5.93463
C          7.91506        2.15591        6.54729
C          8.15313        2.88918        7.72812
C          9.43812        2.85265        8.24841
H          9.66581        3.40361        9.14573
C         10.46873        2.12567        7.66422
C         10.20208        1.41394        6.50741
H         10.98580        0.84399        6.03318
C         11.82975        2.11903        8.29111
H         11.80168        1.59523        9.24602
H         12.16926        3.13568        8.48004
H         12.55001        1.62230        7.64702
C          7.03088        3.65298        8.41528
C          7.51881        4.46292        9.62153
H          7.92824        3.81721       10.39446
H          6.67630        5.00021       10.05124
H          8.26873        5.19351        9.32749
C          6.00083        2.63001        8.91191
H          5.61422        2.03488        8.08871
H          5.16608        3.13861        9.38821
H          6.45867        1.96024        9.63771
C          6.38075        4.63486        7.43104
H          5.91509        4.11668        6.59605
H          7.12762        5.32216        7.03820
H          5.61301        5.21313        7.94036
C          9.74383       -0.92903        4.14959
H         10.76988       -0.57158        4.06687
H          9.68772       -1.49634        5.07947
C          9.46092       -1.87308        2.98747
H          9.55673       -1.35510        2.03835
H          8.45474       -2.27307        3.05774
H         10.16341       -2.70472        2.99223
C          9.06498        2.00300        3.03977
H          8.18833        2.59737        2.77356
H          9.72497        2.67849        3.58843
C          9.79087        1.57022        1.76905
H         10.69592        1.02271        2.01678
H         10.07120        2.44015        1.17803
H          9.16385        0.93323        1.15433
