75
CSD_code = IKOYEN | q = 0 | S = 0 | Stoichiometry = C34H37FePSi2 | MND = 9
Fe         4.40117       12.09639        1.91220
P          3.86504       10.43223        3.19807
Si         5.66871       10.76684        0.64370
Si         6.31587       12.34398        3.02255
C          2.44717       12.91675        2.13127
C          2.55887       12.37774        0.83850
C          3.64716       12.72419        0.03628
C          4.59423       13.65514        0.50399
C          4.44371       14.23529        1.76803
C          3.36661       13.87415        2.58372
C          7.02244        9.99710        1.71923
C          7.38096       10.78828        2.80742
C          8.45969       10.42113        3.59319
C          9.16441        9.26016        3.32103
C          8.79188        8.46239        2.25277
C          7.73008        8.84059        1.44781
C          6.75381       11.70809       -0.64148
C          4.95794        9.40242       -0.52365
C          7.46545       13.75577        2.38401
C          6.26270       12.80325        4.89099
C          4.77358        8.85533        3.40035
C          4.49952        7.70863        2.66778
C          5.25763        6.56435        2.84911
C          6.29105        6.55061        3.76788
C          6.56051        7.68562        4.51570
C          5.81070        8.82942        4.33052
C          3.47244       10.70442        4.97546
C          3.27458        9.65243        5.86801
C          2.90966        9.90887        7.17703
C          2.72442       11.21230        7.61058
C          2.90628       12.26188        6.72664
C          3.27810       12.00370        5.41917
C          2.21189        9.79228        2.69384
C          1.09873        9.70102        3.52131
C         -0.10717        9.23463        3.02355
C         -0.22031        8.84874        1.69959
C          0.87897        8.95200        0.86238
C          2.07679        9.43405        1.35530
H          1.59309       12.65826        2.74242
H          1.78811       11.72430        0.46346
H          3.72271       12.33991       -0.96785
H          5.39419       13.97517       -0.14147
H          5.12417       15.00426        2.09250
H          3.20983       14.39143        3.51734
H          8.75131       11.04116        4.42963
H         10.00401        8.97486        3.94089
H          9.33673        7.55183        2.04272
H          7.45013        8.22520        0.60479
H          6.17011       12.11842       -1.45806
H          7.47686       11.02335       -1.07291
H          7.31547       12.51037       -0.18290
H          4.68636        8.49700        0.00444
H          5.71513        9.13413       -1.25296
H          4.09518        9.75384       -1.08030
H          8.50429       13.47105        2.50940
H          7.30967       14.67008        2.94587
H          7.31665       13.98135        1.33669
H          5.67293       13.69846        5.05219
H          7.26661       13.01229        5.24469
H          5.84888       12.01769        5.51020
H          3.67887        7.69707        1.96647
H          5.03514        5.67823        2.27201
H          6.88169        5.65724        3.90673
H          7.35934        7.67851        5.24198
H          6.01899        9.71430        4.91283
H          3.40266        8.63203        5.53580
H          2.76327        9.08664        7.86259
H          2.43831       11.40666        8.63384
H          2.76222       13.28010        7.05860
H          3.44786       12.80347        4.71940
H          1.15915        9.99635        4.55792
H         -0.96455        9.17250        3.67839
H         -1.16143        8.47934        1.31953
H          0.79814        8.66604       -0.17691
H          2.92993        9.56204        0.71081
