68
CSD_code = IPUYIB | q = 1 | S = 0 | Stoichiometry = C18H42MoN3O3Si(1+) | MND = 6
Mo         5.16914       10.44602        6.15538
Si         5.33077       13.03404        8.17168
O          5.69635       11.95090        6.97408
O          3.69929       10.75210        5.48175
N          7.48967        9.97999        5.99046
N          5.35311        8.75154        4.70886
O          5.09160        9.27405        7.30853
N          5.98114       11.41378        4.15730
C          5.29277       10.63893        3.11677
H          5.60397       10.95618        2.11070
H          4.22251       10.83172        3.23238
C          7.74935        8.70337        5.29954
H          8.48560        8.10821        5.85142
H          8.17855        8.89211        4.31193
C          8.13283       11.11081        5.31143
H          9.20430       10.92226        5.14805
H          8.03224       11.98315        5.96645
C          7.44332       11.40828        3.97688
H          7.79351       12.37819        3.60558
H          7.72711       10.66654        3.22553
C          5.54151        9.14103        3.29495
H          4.84639        8.59170        2.65152
H          6.54995        8.87738        2.96557
C          4.09222        7.99887        4.84254
H          4.13670        7.07191        4.25965
H          3.26341        8.61971        4.50105
H          3.91659        7.76717        5.89481
C          6.45465        7.89925        5.18114
H          6.60132        7.03825        4.51448
H          6.17065        7.53596        6.17354
C          3.43755       12.76066        8.39596
H          3.30317       11.66509        8.39104
C          7.98598        9.89519        7.36836
H          9.07091        9.73651        7.38276
H          7.48855        9.07344        7.88138
H          7.74873       10.81450        7.90089
C          5.83493       14.76834        7.48725
H          5.37851       14.88759        6.49676
C          6.37545       12.45095        9.68785
H          7.41452       12.32476        9.35413
C          5.48201       12.79377        4.12752
H          5.64989       13.24688        3.14316
H          5.98773       13.38322        4.89119
H          4.41468       12.79727        4.34618
C          5.87250       11.08457       10.17152
H          6.59768       10.62427       10.84090
H          5.68389       10.40996        9.33489
H          4.94205       11.20154       10.71955
C          5.31201       15.91169        8.35270
H          5.71148       15.85233        9.35977
H          4.22867       15.88589        8.41511
H          5.60378       16.87080        7.92837
C          2.85137       13.31766        9.69152
H          2.97375       14.39677        9.74018
H          3.32837       12.87985       10.56291
H          1.78688       13.09708        9.74706
C          2.65185       13.30072        7.19716
H          1.58640       13.13474        7.34551
H          2.95091       12.77409        6.29200
H          2.81093       14.36837        7.06328
C          7.34978       14.90483        7.31607
H          7.59693       15.86102        6.85764
H          7.75131       14.11167        6.68546
H          7.84904       14.85617        8.27994
C          6.41636       13.43370       10.85669
H          5.41598       13.67466       11.20182
H          6.91088       14.35816       10.57214
H          6.96757       13.00057       11.68960
