66
CSD_code = IREZEK | q = 0 | S = 0 | Stoichiometry = C34H30SiZr | MND = 12
Zr        -0.64769        0.96722       11.94213
Si        -2.91283        4.96461       12.33300
C         -1.15763       -0.52643        9.91541
H         -0.55752       -0.59222        9.01704
C         -1.04832       -1.35768       11.04890
H         -0.36381       -2.19210       11.15828
C         -2.12968       -1.06210       11.90974
H         -2.41738       -1.64157       12.78080
C         -2.89728       -0.03911       11.30844
H         -3.85434        0.33111       11.65709
C         -2.28914        0.29597       10.08079
H         -2.67917        0.99228        9.34877
C          0.12821       -0.11420       14.05690
H         -0.37048       -0.94720       14.54127
C         -0.02898        1.24840       14.39374
H         -0.68309        1.64474       15.16042
C          0.94516        1.98666       13.69041
H          1.13334        3.04797       13.79516
C          1.71536        1.08295       12.93326
H          2.61390        1.33262       12.38361
C          1.20533       -0.21520       13.14608
H          1.66788       -1.13816       12.81206
C         -1.84899        2.74638       12.24030
C         -2.79312        3.23310       13.12221
C         -1.64018        3.91843       11.37786
C         -0.76619        4.18691       10.38211
C          0.23302        3.27684        9.80846
C          0.95553        3.70647        8.68506
H          0.74526        4.67340        8.25015
C          1.92732        2.91229        8.11281
H          2.47324        3.26344        7.24854
C          2.19785        1.66517        8.65062
H          2.96541        1.03961        8.21474
C          1.46556        1.22208        9.74350
H          1.69795        0.22345       10.13186
C          0.46578        1.99285       10.35380
C         -4.57107        5.41954       11.51235
H         -4.46585        6.31500       10.90882
H         -5.32966        5.61490       12.26387
H         -4.93628        4.62147       10.87428
C         -2.22120        6.47175       13.27002
H         -1.94347        7.25069       12.56642
H         -1.33841        6.21334       13.84558
H         -2.95688        6.88745       13.95108
C         -3.42725        2.60309       14.25277
C         -3.28519        1.23738       14.53400
H         -2.67664        0.62445       13.87213
C         -3.91174        0.67119       15.62675
H         -3.79300       -0.38452       15.82833
C         -4.69430        1.44686       16.46845
H         -5.18152        1.00060       17.32249
C         -4.84871        2.79878       16.20270
H         -5.45913        3.40807       16.85385
C         -4.22722        3.36773       15.10997
H         -4.34565        4.42169       14.90218
C         -0.81773        5.57450        9.86161
C         -1.94592        6.03879        9.19474
H         -2.76006        5.35566        9.00344
C         -2.01975        7.35277        8.76799
H         -2.89905        7.70061        8.24456
C         -0.96957        8.22210        9.00846
H         -1.02780        9.24895        8.67801
C          0.15865        7.76864        9.67278
H          0.98025        8.44415        9.86371
C          0.23598        6.45428       10.09392
H          1.11410        6.09942       10.61458
