101
CSD_code = IZUREA | q = 0 | S = 0 | Stoichiometry = C36H57ILaN3Si3 | MND = 9
La         1.04659        2.32480        7.54905
I          2.86419        0.05210        8.28672
Si         3.04304        6.12513        6.38861
Si         2.22489        3.13229       11.27759
Si        -1.10109        4.74510       10.03150
N          2.78920        2.48103        5.49062
N         -0.94688        0.78369        8.72501
N         -0.63670        2.62707        6.05173
H         -0.97895        3.58608        6.13280
C          2.17538        5.01981        7.62677
C          2.75685        4.24617        8.66010
H          3.81869        4.07459        8.77702
C          1.77410        3.86001        9.60062
C          0.51092        4.39799        9.13051
C          0.79609        5.09326        7.92758
H          0.08440        5.70110        7.38476
C          4.89253        5.68886        6.18724
H          5.35752        5.47184        7.14280
H          5.43020        6.52298        5.74784
H          5.04055        4.82888        5.54232
C          2.21198        6.06825        4.66521
H          2.80577        6.60358        3.93030
H          1.23306        6.53577        4.69037
H          2.08278        5.05173        4.30454
C          2.93730        7.93131        7.01198
H          3.46331        8.05227        7.95380
H          1.90698        8.23193        7.17518
H          3.37360        8.62354        6.29803
C          1.30302        1.49557       11.66709
H          0.36004        1.42497       11.13255
H          1.08295        1.42091       12.72772
H          1.90617        0.63243       11.40377
C          4.10001        2.76034       11.32198
H          4.37683        2.32908       12.27897
H          4.68804        3.66298       11.18998
H          4.39389        2.05223       10.55389
C          1.86836        4.37831       12.68193
H          0.80630        4.47131       12.87887
H          2.24714        5.36486       12.43665
H          2.34700        4.06077       13.60283
C         -1.72996        3.39641       11.23286
H         -2.68562        3.69385       11.65389
H         -1.04408        3.24668       12.05783
H         -1.87581        2.43806       10.74395
C         -2.48084        5.00886        8.72203
H         -2.37805        5.97550        8.23935
H         -3.46448        4.98206        9.18088
H         -2.46405        4.25305        7.94266
C         -0.96918        6.38730       11.00326
H         -0.65743        7.19902       10.35333
H         -0.24453        6.32055       11.80679
H         -1.92429        6.66225       11.44090
C          2.42214        2.48693        4.20726
H          1.36272        2.58397        4.00468
C          3.31578        2.35417        3.15733
H          2.95248        2.36010        2.14207
C          4.66339        2.20500        3.44018
H          5.38712        2.08852        2.64757
C          5.05722        2.20997        4.76821
H          6.09385        2.10058        5.04436
C          4.09214        2.35568        5.75063
H          4.38411        2.37076        6.79316
C         -2.21015        1.10769        8.44350
H         -2.35154        2.01134        7.86620
C         -3.29911        0.34818        8.83604
H         -4.29784        0.66390        8.57918
C         -3.07826       -0.81387        9.55762
H         -3.90351       -1.42994        9.88193
C         -1.77040       -1.16552        9.84645
H         -1.54143       -2.06232       10.39939
C         -0.74530       -0.34217        9.41058
H          0.28223       -0.60466        9.62333
C         -0.83922        2.21514        4.76780
C         -0.64941        0.85111        4.40541
C         -0.92725        0.43165        3.11775
H         -0.79658       -0.60973        2.86122
C         -1.38250        1.30758        2.15033
H         -1.60612        0.95797        1.15367
C         -1.54580        2.64169        2.47869
H         -1.89644        3.32237        1.71825
C         -1.26845        3.11624        3.74593
C         -0.17562       -0.17968        5.40997
H          0.07462        0.33809        6.35205
C          1.08480       -0.90988        4.93695
H          1.43324       -1.59639        5.70612
H          1.88322       -0.20043        4.72076
H          0.88769       -1.48405        4.03517
C         -1.29017       -1.18298        5.72254
H         -0.96816       -1.88207        6.49306
H         -1.55548       -1.74904        4.83302
H         -2.17979       -0.66265        6.07308
C         -1.44530        4.59183        4.05363
H         -0.72566        4.87757        4.83323
C         -2.86455        4.85382        4.57201
H         -2.98508        5.89818        4.85585
H         -3.08773        4.23186        5.43689
H         -3.59011        4.61944        3.79558
C         -1.15391        5.50210        2.85926
H         -0.19911        5.24690        2.40454
H         -1.11032        6.53812        3.19159
H         -1.93228        5.43093        2.10387
