88
CSD_code = JALXEA | q = 0 | S = 0 | Stoichiometry = C44H40N2SiZr | MND = 12
Zr         3.00730        7.68563        2.43304
Si        -0.22117        7.76535        0.88730
N          3.72125        8.61749        4.10766
N          4.82048        6.71722        2.44808
C          5.15990        8.41769        4.20115
H          5.50970        8.53970        5.23822
H          5.70551        9.14124        3.56254
C          5.44148        6.97930        3.74174
H          6.52063        6.77772        3.72093
H          4.99383        6.29912        4.48158
C          3.19394        9.66534        4.81568
C          3.94672       10.64475        5.48825
H          5.02427       10.64642        5.42841
C          3.32157       11.63663        6.21787
H          3.92742       12.37768        6.72021
C          1.94228       11.69638        6.31245
H          1.46512       12.47034        6.89402
C          1.18270       10.74662        5.64487
H          0.10392       10.78115        5.70671
C          1.79166        9.75839        4.90388
H          1.20311        9.00881        4.38283
C          5.64581        6.76490        1.34732
C          5.23190        6.08509        0.18212
H          4.29549        5.54179        0.21502
C          6.00578        6.07221       -0.95817
H          5.66498        5.53024       -1.82974
C          7.22379        6.73599       -0.99368
H          7.82800        6.72756       -1.88760
C          7.65551        7.40090        0.14127
H          8.60282        7.92189        0.12977
C          6.89363        7.41655        1.29396
H          7.26810        7.95564        2.15247
C         -1.42396        8.02505        4.22121
H         -1.70127        7.80252        5.24934
H         -2.26035        7.78083        3.57045
H         -1.24108        9.09827        4.14978
C         -0.21198        7.23758        3.83709
C          0.18600        6.92681        2.52279
C          1.34709        6.08888        2.64051
C          1.99884        5.23012        1.70242
H          1.62017        5.16563        0.68632
C          2.95681        4.35389        2.13332
H          3.39775        3.63985        1.44975
C          3.37841        4.30308        3.49703
C          4.39565        3.42685        3.90709
H          4.88803        2.81791        3.16224
C          4.76911        3.34068        5.22599
H          5.55535        2.66343        5.52495
C          4.12937        4.12526        6.18772
H          4.42614        4.04905        7.22351
C          3.12695        4.99054        5.82016
H          2.63481        5.60116        6.56291
C          2.73380        5.10950        4.47658
C          1.67575        5.97520        4.05130
C          0.68119        6.67005        4.75558
H          0.59446        6.74957        5.82542
C          2.50691        7.18723       -1.31612
H          2.21222        6.16556       -1.08273
H          3.47226        7.15583       -1.81714
H          1.77230        7.58638       -2.01589
C          2.58710        8.08353       -0.11105
C          1.47862        8.57230        0.63544
C          1.96997        9.66430        1.43008
C          1.29926       10.68522        2.15406
H          0.22479       10.64926        2.26063
C          1.99933       11.74844        2.63554
H          1.48683       12.54636        3.15195
C          3.41647       11.84357        2.51653
C          4.12870       12.90522        3.09595
H          3.58108       13.65585        3.64703
C          5.49383       12.98588        2.98277
H          6.02965       13.80412        3.44094
C          6.19989       12.01087        2.27410
H          7.27473       12.08350        2.19101
C          5.53253       10.96421        1.68558
H          6.07648       10.20970        1.13166
C          4.13660       10.85377        1.79906
C          3.38919        9.79201        1.19822
C          3.74941        8.80571        0.23895
H          4.69298        8.75525       -0.28898
C         -1.63823        9.04514        0.91819
H         -1.65416        9.65633        1.81134
H         -2.59516        8.53841        0.85550
H         -1.56397        9.71083        0.06417
C         -0.74355        6.55724       -0.50411
H         -1.73895        6.17961       -0.29297
H         -0.09491        5.69665       -0.61521
H         -0.78684        7.06583       -1.46175
