49
CSD_code = JAZDET | q = 0 | S = 0 | Stoichiometry = C10H30Cl4IrP3Si | MND = 6
Ir         0.37162        2.64731        2.85416
P          2.16963        2.60064        4.37929
P         -0.35843        0.47212        3.33780
P         -0.97435        3.24770        0.99072
Cl         1.48121        4.60695        2.09919
Cl         1.54405        1.13518        1.27712
Si        -0.98170        3.89787        4.34398
Cl        -3.03982        3.56588        4.02610
Cl        -0.81246        3.37227        6.37683
C         -0.89863        5.81563        4.50356
C          3.73914        2.16503        3.55875
C          2.19642        1.57541        5.90314
C          2.59528        4.20695        5.14214
C         -1.33433        0.25246        4.87861
C         -1.47115       -0.36832        2.15746
C          0.91597       -0.83681        3.53161
C         -0.07636        3.19845       -0.59614
C         -1.59268        4.97094        0.98742
C         -2.53186        2.39295        0.52700
H         -1.10121        6.30398        3.55750
H          0.08772        6.13164        4.82660
H         -1.62472        6.16959        5.23193
H          3.91534        2.89549        2.77009
H          3.66307        1.18225        3.09789
H          4.55911        2.18410        4.27681
H          2.05154        0.52043        5.69339
H          1.39715        1.91942        6.55621
H          3.15445        1.71335        6.40356
H          2.66480        4.97450        4.37537
H          3.55097        4.11427        5.65776
H          1.82167        4.47540        5.85773
H         -0.75187        0.57271        5.73891
H         -1.62662       -0.78980        4.99878
H         -2.22602        0.87254        4.82293
H         -2.44200        0.12052        2.15673
H         -1.58642       -1.40721        2.46822
H         -1.02865       -0.33392        1.16437
H          1.87105       -0.41140        3.82503
H          1.05444       -1.32014        2.56706
H          0.58802       -1.56432        4.27341
H          0.23321        2.17766       -0.80926
H          0.81272        3.82097       -0.51795
H         -0.72401        3.56852       -1.39134
H         -0.77599        5.65548        1.20194
H         -2.37066        5.07663        1.73924
H         -2.00618        5.19669        0.00478
H         -2.32129        1.39098        0.16442
H         -3.02226        2.96013       -0.26341
H         -3.18972        2.34426        1.39184
