98
CSD_code = JEFHAE | q = 0 | S = 0 | Stoichiometry = C34H61OsPSi | MND = 8
Os        12.22830        4.41770       16.35579
P         13.32162        4.36157       18.41206
Si        14.06338        3.58990       15.28384
C          9.95978        3.86773       17.03695
C         10.46936        5.01420       15.09888
C         15.08668        5.03341       18.49584
H         15.63025        4.26188       17.93861
C         10.02090        5.15925       16.45446
C         14.23255        5.09080       12.52905
H         13.72841        5.36082       13.46434
C         10.69464        3.62281       14.86235
C         14.20389        3.58616       12.40044
C         13.62931        2.70688       19.27627
H         13.92656        2.90972       20.30855
C         12.53648        4.94926       21.20865
H         11.86077        5.57000       21.79832
H         13.55059        5.17475       21.52120
H         12.31944        3.91145       21.44818
C         14.12211        0.51167       14.62499
H         13.69396        1.09770       15.44716
C         14.21936        0.82892       12.14069
H         14.22647       -0.24535       12.04097
C         12.32621        1.91990       19.27876
H         12.45252        0.95841       19.77638
H         12.01761        1.73635       18.25149
H         11.53860        2.46680       19.79160
C         14.71840        1.87859       18.60437
H         14.70899        0.86684       19.00889
H         15.70734        2.29388       18.77356
H         14.54305        1.82177       17.53191
C         15.70907        5.15950       19.88520
H         16.77485        5.35973       19.77835
H         15.59956        4.25223       20.47199
H         15.27465        5.99160       20.43211
C         12.37396        6.76101       19.47565
H         11.52908        7.26518       19.94448
H         12.34963        6.95699       18.40463
H         13.28583        7.18402       19.88895
C         15.28298        6.33695       17.72798
H         16.34610        6.50599       17.56532
H         14.88697        7.18588       18.27578
H         14.78462        6.27829       16.76347
C         14.26960        2.99147       11.14893
H         14.31703        3.60664       10.26258
C         12.30853        5.25698       19.73006
H         11.29083        4.92994       19.48475
C         14.27693        1.61377       10.99951
C         14.15724        2.78791       13.54701
C         14.15357        1.39813       13.40245
C         15.55105        0.12715       15.01311
H         15.55209       -0.47621       15.91866
H         16.14639        1.01948       15.18710
H         16.01509       -0.44591       14.21325
C         13.07860        0.17138        9.34608
H         12.19248        0.79376        9.45364
H         12.99744       -0.66165       10.04038
H         13.10240       -0.22660        8.33355
C         14.34042        0.99063        9.62646
H         14.39287        1.79808        8.88691
C         10.41250        2.91781       16.07449
C         10.83529        2.97783       13.51449
H          9.84180        2.80009       13.09261
H         11.35136        2.02167       13.57838
H         11.38893        3.60876       12.82218
C          9.21126        3.53881       18.29369
H          8.14874        3.43492       18.05377
H          9.29738        4.32646       19.04240
H          9.54166        2.60185       18.73871
C         13.26399       -0.74207       14.44655
H         12.29880       -0.49168       14.01010
H         13.09535       -1.21717       15.41153
H         13.75355       -1.46800       13.80185
C         10.34350        6.06201       14.03073
H          9.32677        6.05431       13.62740
H         11.03544        5.87477       13.21193
H         10.54357        7.05763       14.42327
C         13.52126        5.81768       11.38649
H         12.54708        5.37391       11.19034
H         14.10511        5.78473       10.46952
H         13.37683        6.86306       11.65122
C         15.59361        0.12608        9.47521
H         16.48509        0.71380        9.68401
H         15.66392       -0.26376        8.46167
H         15.56905       -0.71479       10.16416
C         10.22940        1.42849       16.14703
H          9.36106        1.13734       15.54867
H         10.05513        1.09329       17.16859
H         11.09489        0.89455       15.75350
C          9.40819        6.40049       17.03103
H          8.34331        6.44101       16.78253
H          9.88084        7.29645       16.63141
H          9.49986        6.42684       18.11630
C         15.68600        5.55983       12.62712
H         16.17738        5.08774       13.47337
H         15.72705        6.63853       12.75935
H         16.22781        5.29857       11.71999
H         15.56539        3.56323       15.55119
H         12.75332        5.89594       16.19154
