79
CSD_code = JINMID | q = 0 | S = 0 | Stoichiometry = C30H45N2ScSi | MND = 9
Sc         6.39027        3.37765        2.98368
Si         5.21558        7.05849        4.01502
N          8.70309        2.46692        1.69358
N          3.98861        2.82726        2.12051
C          6.71861        4.37167        1.01859
H          5.97038        5.02988        0.56242
H          7.60777        4.97639        1.24147
C          7.03537        3.27400        0.10589
C          8.02062        2.30984        0.42651
C          8.28247        1.26225       -0.43873
H          9.03802        0.52905       -0.19878
C          7.58119        1.12514       -1.62779
H          7.79898        0.29965       -2.28852
C          6.61421        2.05724       -1.95997
H          6.06978        1.96575       -2.88894
C          6.35589        3.11315       -1.10993
H          5.61417        3.85078       -1.39021
C          9.85163        3.35698        1.51309
H         10.61172        2.89583        0.86538
H         10.30654        3.56517        2.48069
H          9.54351        4.29198        1.05225
C          9.19584        1.21028        2.25657
H          8.42418        0.44696        2.20074
H          9.45681        1.37707        3.30193
H         10.09430        0.84326        1.74092
C          5.99828        1.20710        3.24472
H          5.98633        0.88370        2.19280
H          6.63677        0.52026        3.81331
C          4.64703        1.20614        3.81373
C          3.62172        2.00718        3.25780
C          2.34966        1.99788        3.80162
H          1.56422        2.60209        3.37273
C          2.05852        1.22430        4.91586
H          1.06140        1.23046        5.32939
C          3.05322        0.44977        5.48755
H          2.83538       -0.15493        6.35645
C          4.32098        0.43880        4.94088
H          5.08725       -0.18312        5.38485
C          3.21873        4.06455        2.00738
H          2.17003        3.88738        1.73218
H          3.66605        4.67930        1.22627
H          3.25435        4.60961        2.94826
C          3.78367        2.04946        0.89456
H          4.29386        1.09181        0.96143
H          4.18286        2.59304        0.04062
H          2.71503        1.85530        0.72769
C          6.05678        5.39864        4.31107
C          5.59693        4.31850        5.13291
C          6.70247        3.50837        5.47797
C          7.87373        4.08528        4.90405
C          7.48812        5.23529        4.19278
C          4.24554        4.19118        5.77689
H          3.99524        3.15052        5.97317
H          3.45771        4.61799        5.16477
H          4.24483        4.71770        6.73443
C          6.71658        2.42022        6.51345
H          6.95772        2.84390        7.49205
H          7.46754        1.66455        6.28530
H          5.74694        1.93360        6.58961
C          9.27359        3.69140        5.28440
H         10.01045        4.15571        4.63305
H          9.41417        2.61064        5.25731
H          9.48262        4.02113        6.30523
C          8.44216        6.26363        3.65152
H          8.79626        6.90015        4.46548
H          7.96161        6.90229        2.91548
H          9.31700        5.80244        3.19402
C          6.16174        8.42995        4.96778
H          5.52506        9.29369        5.13539
H          7.03700        8.77327        4.42693
H          6.49503        8.07607        5.93864
C          5.15769        7.56860        2.16335
H          4.40758        7.00716        1.61491
H          6.10791        7.42306        1.65926
H          4.90202        8.62006        2.07402
C          3.40722        7.22113        4.62045
H          3.06632        8.23826        4.45083
H          3.31602        7.02243        5.68216
H          2.71972        6.56569        4.09579
