102
CSD_code = JINNAW | q = 0 | S = 0 | Stoichiometry = C45H33BF20NScSi | MND = 11
Sc         7.98221        3.79638        5.70369
Si        11.18291        5.94384        5.58350
N          7.94021        2.66024        7.79961
F          8.26052        3.10119        3.60776
F          9.78065        2.74897        5.56324
F         11.57499        0.61012        5.68461
F         11.78416       -1.03271        3.47137
F         10.35192       -0.52303        1.28846
F          7.76822       -0.95426        2.23381
F          6.05091       -2.75634        1.33188
F          4.77519       -2.40422       -1.06931
F          5.28151       -0.13884       -2.52422
F          7.02396        1.68260       -1.62472
F          9.35350        0.11500       -1.72622
F         11.55623        0.59426       -3.13137
F         13.34470        2.49996       -2.32767
F         12.83942        3.92076       -0.03299
F         10.60191        3.47785        1.36067
F          8.75242        4.19260       -0.83531
F          6.94560        6.12932       -0.87725
F          4.71707        6.01072        0.70381
F          4.37982        3.84555        2.36898
F          6.18780        1.88929        2.40539
B          8.52767        1.61846        0.80681
C          6.13995        2.69372        5.60107
H          5.54991        3.11087        6.42302
H          5.52885        2.58066        4.70532
C          6.88709        1.48147        5.92214
C          7.76598        1.42702        7.03954
C          8.46219        0.26509        7.32396
H          9.11967        0.21093        8.17759
C          8.34669       -0.85091        6.50550
H          8.90210       -1.74426        6.74288
C          7.52540       -0.80526        5.39157
H          7.43781       -1.66423        4.74680
C          6.80673        0.33842        5.10864
H          6.15311        0.35733        4.25142
C          9.21335        2.71770        8.53173
H          9.22196        2.03211        9.38826
H          9.34768        3.72681        8.91712
H         10.05514        2.47017        7.88805
C          6.87017        2.76527        8.80431
H          5.89022        2.65530        8.34751
H          6.92435        3.73507        9.29786
H          6.97598        1.98070        9.56407
C          9.29473        5.75942        5.64706
C          8.49803        5.83728        6.83984
C          7.12968        5.87597        6.46835
C          7.05808        5.85839        5.03894
C          8.38772        5.80700        4.54020
C          8.99271        6.22853        8.20154
H          8.93969        7.31608        8.29054
H         10.02710        5.93862        8.35808
H          8.37443        5.81474        8.99757
C          5.96817        6.19200        7.36266
H          5.80525        7.27200        7.38008
H          6.14534        5.86986        8.38619
H          5.05307        5.72660        7.00148
C          5.80056        6.15770        4.27712
H          5.04227        5.38657        4.41335
H          6.00170        6.26568        3.21575
H          5.38027        7.10017        4.63188
C          8.77014        5.97719        3.10071
H          7.91543        5.81331        2.44826
H          9.56133        5.29831        2.79620
H          9.12670        6.99534        2.93748
C         11.96874        5.59063        3.88146
H         11.73114        6.35592        3.15161
H         11.67397        4.63214        3.46385
H         13.04960        5.57381        3.98533
C         11.61089        7.73250        6.09969
H         12.67159        7.92051        5.96833
H         11.36877        7.93134        7.13845
H         11.07236        8.45524        5.49462
C         12.06074        4.71082        6.77147
H         13.07736        5.04978        6.94625
H         12.13243        3.71556        6.34101
H         11.58663        4.61456        7.74295
C          9.21892        1.30204        2.26422
C          9.12913        2.05025        3.42208
C          9.92719        1.84509        4.53433
C         10.83141        0.80612        4.59558
C         10.93027       -0.01169        3.47043
C         10.16121        0.26511        2.34467
C          7.52039        0.42902        0.31564
C          7.20950       -0.71885        1.03144
C          6.30207       -1.67426        0.58349
C          5.65087       -1.49759       -0.62843
C          5.91469       -0.34905       -1.36597
C          6.82447        0.58203       -0.88288
C          9.84635        1.81464       -0.14608
C         10.15698        1.09299       -1.29186
C         11.31519        1.31736       -2.03419
C         12.22792        2.28148       -1.62945
C         11.96707        3.00394       -0.47139
C         10.80105        2.75381        0.23491
C          7.57067        2.94895        0.81034
C          7.70024        4.05747       -0.02034
C          6.75711        5.08350       -0.06697
C          5.62269        5.02795        0.73161
C          5.45486        3.93442        1.57156
C          6.41317        2.93214        1.58197
