56
CSD_code = JOLXEN | q = 0 | S = 0 | Stoichiometry = C13H37HfNP2Si2 | MND = 6
Hf         4.24527        8.14483        7.95534
P          4.03463       10.07868        5.74919
P          1.39856        8.08525        8.35325
Si         3.67260        7.25840        4.60506
Si         2.51571        5.66250        6.87337
N          3.19947        7.09208        6.23563
C          4.61606        8.92420        4.45726
C          1.44612        6.25324        8.36499
C          4.32587        7.00260        9.90850
C          6.39245        7.88110        7.30600
C          4.26643       10.13838        9.02607
C          2.50775       10.72440        4.93182
C          5.13703       11.52945        5.40751
C          0.14748        8.32648        7.01674
C          0.28927        8.38512        9.80980
C          2.21212        7.32721        3.36294
C          4.82902        5.88394        3.94335
C          3.88534        4.44423        7.43883
C          1.33847        4.68456        5.73008
H          4.49952        9.37864        3.47279
H          5.67802        8.75508        4.62502
H          1.87904        5.93060        9.30941
H          0.42654        5.86716        8.31700
H          3.50876        7.32112       10.56893
H          4.29387        5.91045        9.87284
H          5.25425        7.26677       10.43229
H          6.51997        7.11708        6.53114
H          6.81084        8.81194        6.90270
H          7.04467        7.59319        8.14001
H          5.15061       10.72687        8.74759
H          3.38977       10.75066        8.77492
H          4.28421       10.05187       10.11873
H          2.12285       11.56705        5.50378
H          2.71588       11.04524        3.91188
H          1.75748        9.93943        4.91766
H          6.14932       11.29318        5.72877
H          5.14260       11.77154        4.34527
H          4.78969       12.39173        5.97292
H         -0.10475        9.38233        6.93250
H          0.58532        7.98417        6.08254
H         -0.75753        7.75664        7.22511
H         -0.01713        9.42922        9.82497
H         -0.59514        7.75044        9.76781
H          0.83810        8.17662       10.72563
H          1.41010        7.98200        3.68746
H          2.53933        7.67041        2.38650
H          1.78916        6.33765        3.23506
H          4.29866        4.93821        3.92687
H          5.16929        6.08763        2.93322
H          5.70571        5.75171        4.56846
H          3.58045        3.81322        8.26783
H          4.15345        3.78956        6.61615
H          4.78390        4.98460        7.73282
H          0.51494        5.29437        5.37594
H          1.87940        4.32749        4.86176
H          0.92001        3.82019        6.23499
