67
CSD_code = JUNYAU | q = 0 | S = 0 | Stoichiometry = C19H42N2SSi2Ti | MND = 9
Ti         9.50878       11.82803        1.52432
C          8.04075       11.96484        3.44902
N         11.36646       11.14217        2.34163
Si        13.06865       11.42555        2.25324
S         10.97952        9.57697        2.35559
Si         8.80976        8.26431        1.18883
C          8.06992       13.64891        1.88112
C          9.18155       13.82986        2.75046
C          9.15736       12.79329        3.71999
C          7.50065       10.84123        4.29010
H          6.42227       10.95689        4.41136
H          7.94704       10.84194        5.28450
H          7.68702        9.86993        3.82594
C          6.01548       12.04552        1.83729
H          5.84423       12.34050        0.80394
H          5.23766       12.51053        2.45075
H          5.90672       10.96549        1.91362
C          7.56849       14.65448        0.88323
H          8.39127       15.19258        0.41519
H          6.93010       15.38679        1.38519
H          6.97994       14.17716        0.10157
C         10.05930       15.04726        2.81592
H         10.14283       15.52519        1.84184
H         11.05763       14.79205        3.16545
H          9.63123       15.77677        3.51028
C         10.06840       12.74964        4.91565
H         11.05962       12.37550        4.64918
H          9.65813       12.11597        5.70196
H         10.18505       13.75374        5.32699
C         14.02548       10.22964        3.41334
H         13.78522        9.19257        3.19552
H         13.80617       10.41119        4.46156
H         15.09656       10.35044        3.28779
C         13.75396       11.06907        0.49256
H         13.15843       10.30310       -0.00143
H         14.78230       10.72241        0.52411
H         13.73030       11.95515       -0.13385
C         13.54149       13.18668        2.82293
H         14.62232       13.25430        2.88182
H         13.14583       13.42941        3.80371
H         13.20775       13.94949        2.12936
C          9.33902        6.73590        2.22587
H          9.01926        5.81761        1.74415
H          8.90064        6.74216        3.21964
H         10.41893        6.68900        2.33652
C          6.89929        8.24706        1.18303
H          6.48084        8.95944        0.48178
H          6.47672        8.45225        2.16125
H          6.56156        7.26126        0.88238
C          9.50652        7.93959       -0.57377
H          9.60575        6.87797       -0.77788
H         10.48937        8.39450       -0.68540
H          8.86416        8.35800       -1.34202
C         10.74019        9.28719        4.17465
H         10.29326        8.30964        4.30681
H         10.08826       10.06646        4.54444
H         11.70966        9.32972        4.65554
C         10.71484       12.96749        0.25041
H         11.27289       12.31749       -0.43359
H         11.44758       13.51919        0.84373
H         10.17844       13.69460       -0.36760
C          8.54477       11.37646       -0.27664
H          8.18787       12.24484       -0.83942
H          7.68053       10.73975       -0.07428
H          9.21186       10.81716       -0.94262
C          7.37072       12.48711        2.31187
N          9.44977        9.72054        1.86423
