67
CSD_code = JUNYIC | q = 0 | S = 0 | Stoichiometry = C19H42HfN2SSi2 | MND = 9
Hf         1.30726        2.70454        3.26017
S          2.34323        1.53145        5.80419
Si         0.04077        2.76556        6.83085
Si         4.72549        1.51014        4.30324
N          0.89279        2.15653        5.45642
N          2.99974        1.58937        4.32718
C          0.91530        0.42764        2.14922
C          1.08232        1.37086        1.09738
C         -0.01979        2.26497        1.12619
C         -0.85725        1.89005        2.20936
C         -0.28608        0.74740        2.83546
C          1.76074       -0.80982        2.31039
H          2.01802       -1.21215        1.33050
H          1.21772       -1.58563        2.84927
H          2.69011       -0.60344        2.84482
C          2.09501        1.26645       -0.01126
H          1.69636        0.66280       -0.83114
H          3.01152        0.79448        0.33597
H          2.34214        2.24617       -0.41511
C         -0.34073        3.29639        0.08067
H          0.56560        3.72171       -0.34593
H         -0.93792        4.10609        0.49507
H         -0.91174        2.84621       -0.73472
C         -2.23695        2.42526        2.48324
H         -2.31134        3.47868        2.22116
H         -2.50047        2.30944        3.53207
H         -2.97746        1.88432        1.88767
C         -1.00050       -0.08061        3.87241
H         -2.05768       -0.15892        3.61672
H         -0.92573        0.35949        4.86853
H         -0.59759       -1.09192        3.91169
C         -1.83021        2.86732        6.46900
H         -2.05071        3.47152        5.59728
H         -2.32883        3.32374        7.31691
H         -2.27561        1.88948        6.31771
C          0.71977        4.47176        7.38227
H          0.50806        5.24310        6.64963
H          1.79789        4.43673        7.51716
H          0.27950        4.78590        8.32308
C          0.23910        1.62945        8.36328
H         -0.25345        0.67040        8.23142
H         -0.19646        2.09205        9.24293
H          1.28717        1.43946        8.57777
C          5.52257        3.21652        4.66743
H          5.50991        3.85803        3.79309
H          6.55755        3.10953        4.97617
H          4.99167        3.73580        5.46134
C          5.40782        0.33586        5.65624
H          5.14506       -0.70122        5.46977
H          5.02453        0.60542        6.63653
H          6.49077        0.38676        5.70133
C          5.31437        0.82743        2.62008
H          4.76164        1.25081        1.78942
H          5.22299       -0.25256        2.56351
H          6.36127        1.07180        2.47898
C          0.24218        4.63028        3.64304
H          0.01599        5.18509        2.72468
H          0.86919        5.29673        4.25051
H         -0.70220        4.51743        4.18197
C          2.88050        3.86254        2.17660
H          3.68620        3.24929        1.76417
H          3.35543        4.58096        2.85774
H          2.48022        4.45586        1.34587
C          1.93542       -0.27321        5.92902
H          1.44166       -0.56385        5.01308
H          1.28667       -0.41738        6.78366
H          2.86257       -0.81787        6.05784
