67
CSD_code = JUNYEY | q = 0 | S = 0 | Stoichiometry = C19H42N2SSi2Zr | MND = 9
Zr         1.32945        2.59172        3.29357
S          2.35453        1.47579        5.81921
Si         0.06551        2.75419        6.81727
Si         4.72233        1.52186        4.30423
N          0.89700        2.07664        5.46865
N          2.99993        1.49372        4.33726
C          0.89321        0.35280        2.14474
C          1.09411        1.32401        1.12574
C          0.01735        2.24977        1.18051
C         -0.83826        1.86001        2.24589
C         -0.30234        0.68201        2.83510
C          1.75554       -0.87105        2.32489
H          2.02718       -1.28295        1.35214
H          1.22273       -1.64978        2.87076
H          2.67794       -0.63457        2.86380
C          2.12956        1.24340        0.03537
H          1.73839        0.68038       -0.81741
H          3.02908        0.73874        0.38516
H          2.40389        2.23500       -0.32227
C         -0.26677        3.33606        0.17912
H          0.65560        3.74960       -0.22697
H         -0.83851        4.14568        0.63098
H         -0.85078        2.94098       -0.65637
C         -2.18919        2.45360        2.54564
H         -2.17596        3.53864        2.44124
H         -2.50683        2.20472        3.55637
H         -2.93808        2.06391        1.84962
C         -1.00739       -0.12621        3.89466
H         -2.07041       -0.20180        3.65963
H         -0.90849        0.33428        4.88179
H         -0.61155       -1.14065        3.94233
C         -1.80114        2.89574        6.43600
H         -1.98962        3.39783        5.49392
H         -2.28095        3.47226        7.21901
H         -2.28792        1.92632        6.40222
C          0.80095        4.45266        7.33014
H          0.50638        5.23885        6.64290
H          1.88812        4.41560        7.33712
H          0.47298        4.74723        8.32189
C          0.22533        1.65004        8.38137
H         -0.25038        0.68261        8.25035
H         -0.24256        2.12076        9.23948
H          1.26828        1.47590        8.63087
C          5.39976        3.28726        4.65409
H          5.63064        3.81533        3.73469
H          6.30802        3.26120        5.24868
H          4.66164        3.87826        5.19453
C          5.47444        0.40392        5.67254
H          5.23253       -0.64377        5.52134
H          5.10590        0.69037        6.65364
H          6.55633        0.48198        5.69142
C          5.33212        0.83430        2.62763
H          4.74529        1.21139        1.79676
H          5.29666       -0.25015        2.59688
H          6.36322        1.12911        2.46791
C          0.38083        4.58851        3.68364
H          0.17758        5.16335        2.76740
H          1.04739        5.21648        4.29688
H         -0.56903        4.51086        4.22897
C          2.88521        3.79840        2.21506
H          3.69385        3.18140        1.80209
H          3.35768        4.52501        2.89354
H          2.47360        4.38558        1.38047
C          1.95771       -0.33200        5.97580
H          1.45197       -0.63055        5.06683
H          1.32176       -0.47101        6.84141
H          2.88979       -0.87105        6.09679
