70
CSD_code = JUTJUF | q = 0 | S = 0 | Stoichiometry = C31H33MoNO3Si | MND = 9
Mo         7.13137       13.49719        3.91079
Si         7.84956       12.96054        6.21120
O          7.34888       16.52063        3.37787
O         10.04096       14.50350        3.91959
O          6.29867       12.79450        6.95478
N          5.47799       14.06660        5.25256
C          7.23341       15.39657        3.61877
C          8.95748       14.10580        3.93121
C          5.33594       13.51275        6.46781
C          4.16171       13.69580        7.21646
H          4.10009       13.22321        8.18310
C          3.14648       14.47446        6.71341
H          2.24122       14.63036        7.27967
C          3.31631       15.06369        5.46319
H          2.55418       15.69218        5.03264
C          4.48776       14.82687        4.77987
H          4.66255       15.27216        3.80850
C          8.67419       11.33057        6.68488
C          9.95887       11.08729        6.21143
H         10.43565       11.83493        5.59386
C         10.62952        9.92080        6.52567
H         11.62937        9.75521        6.14800
C         10.03340        8.95475        7.32860
C          8.75061        9.19311        7.80534
H          8.27263        8.45497        8.43539
C          8.08402       10.36239        7.48818
H          7.09002       10.53613        7.87241
C         10.75133        7.68022        7.65598
H         10.42570        7.28709        8.61651
H         11.82712        7.83840        7.68479
H         10.54258        6.92667        6.89513
C          8.65031       14.29830        7.31761
C          9.73901       14.04390        8.14470
H         10.14879       13.04489        8.18303
C         10.30494       15.04443        8.91227
H         11.15325       14.82174        9.54518
C          9.79960       16.33835        8.87959
C          8.71456       16.60143        8.05311
H          8.30992       17.60330        8.00674
C          8.15506       15.59936        7.28331
H          7.31679       15.83241        6.63338
C         10.40500       17.41480        9.72898
H         10.07419       17.30627       10.76260
H         10.10832       18.40020        9.37815
H         11.49112       17.34858        9.71820
C          7.25626       12.60010        1.83027
C          7.63333       11.58910        2.78060
C          6.49231       11.28858        3.57555
C          5.41086       12.09198        3.10335
C          5.87178       12.88989        2.02821
C          8.06218       13.02009        0.63698
H          9.12745       13.01350        0.86242
H          7.78970       14.02365        0.31482
H          7.88294       12.33381       -0.19469
C          8.91004       10.80514        2.75159
H          9.15150       10.41245        3.73774
H          9.74209       11.42446        2.42011
H          8.81304        9.96478        2.05972
C          6.33056       10.10074        4.47738
H          5.87386        9.27713        3.92132
H          5.69074       10.32715        5.32949
H          7.29040        9.76350        4.86074
C          3.98188       11.90309        3.51927
H          3.55621       11.05620        2.97468
H          3.37496       12.78165        3.30194
H          3.90040       11.68740        4.58577
C          5.02815       13.71889        1.10640
H          4.78078       13.14076        0.21256
H          5.55632       14.61684        0.78972
H          4.09488       14.01912        1.58000
