47
CSD_code = JUXXEF | q = 0 | S = 0 | Stoichiometry = C19H23Cl2NSiZr | MND = 8
Zr        -1.05014        3.07793        7.91574
Cl        -0.01490        4.96988        7.05757
Cl        -1.34597        1.87241        5.96841
Si        -1.05758        1.23631       10.27575
N          0.02597        1.87314        9.09497
C         -1.23650        4.63393       10.67710
H         -0.70749        4.13720       11.47933
C         -1.09723        5.98880       10.48063
H         -0.42331        6.55242       11.10959
C         -1.81877        6.66971        9.48814
H         -1.69081        7.73597        9.38240
C         -2.67215        5.99342        8.64567
H         -3.22265        6.52121        7.87689
C         -4.30588        3.70144        6.86691
H         -4.48848        4.66350        6.40340
C         -4.84874        2.55146        6.34093
H         -5.44759        2.59922        5.44422
C         -4.64282        1.30966        6.96135
H         -5.09734        0.43157        6.52680
C         -3.88247        1.18575        8.09939
H         -3.76052        0.22309        8.57328
C         -2.41579        2.49459        9.79541
C         -2.12341        3.90249        9.85839
C         -2.81388        4.60707        8.79367
C         -3.52269        3.61241        8.02691
C         -3.28251        2.33050        8.66143
C         -1.51798       -0.58693        9.90844
H         -0.74855       -1.25435       10.28243
H         -2.44980       -0.87456       10.38239
H         -1.60744       -0.75325        8.83788
C         -0.58284        1.34274       12.13405
H         -0.18028        0.39566       12.47715
H          0.16712        2.10325       12.32555
H         -1.44685        1.57014       12.74983
C          1.46203        1.84909        8.92361
C          1.75577        1.79874        7.40653
H          1.23281        0.94493        6.96485
H          1.41324        2.72352        6.91767
H          2.82435        1.68773        7.22732
C          2.04025        3.15406        9.51359
H          1.90894        3.15710       10.59430
H          3.10078        3.24513        9.28948
H          1.50573        4.01569        9.09125
C          2.09828        0.63233        9.60505
H          1.67953       -0.27870        9.18598
H          3.17496        0.63125        9.45588
H          1.88888        0.65200       10.67047
