117
CSD_code = KAPZIM | q = 0 | S = 0 | Stoichiometry = C44H63IN2OPSi4Y | MND = 4
Y          6.06612        2.57390        3.65336
I          5.32610        3.83562        6.09029
O          6.11631        4.24756        2.43224
C          6.43676        5.57360        2.30299
C          7.28320        5.94095        3.57971
H          8.10019        5.21012        3.61497
H          6.64397        5.75656        4.44840
P          8.03007        7.58228        3.81082
C          5.13396        6.35970        2.22053
C          4.33431        6.15847        1.09722
H          4.69903        5.52504        0.30323
C          3.08452        6.73800        1.00126
H          2.48181        6.56842        0.12122
C          2.59923        7.52122        2.03574
H          1.61843        7.96787        1.96783
C          3.37263        7.70830        3.16580
H          2.99726        8.29632        3.99087
C          4.62910        7.12969        3.25998
H          5.19002        7.27829        4.17345
C          7.34219        5.78566        1.08491
C          7.15801        6.79088        0.14510
H          6.34257        7.49098        0.24942
C          8.01113        6.90033       -0.94088
H          7.85089        7.68658       -1.66450
C          9.05485        6.00749       -1.10598
H          9.71435        6.09320       -1.95708
C          9.23731        4.99241       -0.18115
H         10.03857        4.27919       -0.30741
C          8.38740        4.88331        0.90443
H          8.51096        4.07356        1.61236
C          7.38619        8.41632        5.28480
C          6.95293        7.67220        6.37908
H          6.96211        6.59286        6.36654
C          6.48931        8.32084        7.51026
H          6.13839        7.73289        8.34317
C          6.47182        9.70501        7.56232
H          6.10539       10.20807        8.44393
C          6.92815       10.44708        6.48346
H          6.92503       11.52586        6.52603
C          7.38675        9.80908        5.34571
H          7.74262       10.38753        4.50452
C          7.85575        8.73978        2.42348
C          6.64733        9.40773        2.23725
H          5.81894        9.22516        2.90487
C          6.50624       10.29471        1.18633
H          5.56499       10.80262        1.04073
C          7.56590       10.52862        0.32414
H          7.45132       11.22007       -0.49677
C          8.77314        9.87878        0.51948
H          9.60263       10.06378       -0.14584
C          8.92291        8.98685        1.56615
H          9.86729        8.48410        1.71254
C          9.80451        7.33386        4.06532
C         10.46408        7.90997        5.14449
H          9.92063        8.53126        5.84161
C         11.81452        7.66933        5.32912
H         12.32477        8.10737        6.17326
C         12.50692        6.86325        4.44085
H         13.55797        6.67202        4.59349
C         11.85091        6.29374        3.36002
H         12.38879        5.66106        2.67070
C         10.50104        6.52224        3.17034
H          9.98131        6.06576        2.33786
N          8.25973        2.11424        3.76737
Si         9.25681        2.28706        5.16249
C          9.38048        4.11073        5.77473
H          8.41457        4.54016        6.01484
H          9.87719        4.75036        5.05182
H          9.97397        4.13931        6.68291
C         11.08414        1.80298        4.88483
H         11.17130        0.77128        4.56661
H         11.65761        1.91682        5.79849
H         11.54942        2.41991        4.12462
C          8.66982        1.27945        6.68586
H          7.68100        1.58137        7.01857
H          9.34773        1.42300        7.52208
H          8.63807        0.21551        6.47182
Si         8.67281        1.07051        2.45878
C          7.22909        1.14310        1.19639
H          6.28771        0.81458        1.64774
H          7.41925        0.48454        0.35197
H          7.09177        2.14612        0.79353
C         10.27340        1.58303        1.52623
H         11.10985        0.97500        1.85136
H         10.53581        2.61949        1.71115
H         10.16832        1.45034        0.45380
C          8.88046       -0.77395        2.93638
H          9.60152       -0.88310        3.73973
H          9.23505       -1.36085        2.09456
H          7.94622       -1.21276        3.27442
N          4.32586        1.29618        3.37998
Si         4.23768       -0.22301        4.17131
C          5.72209       -0.25985        5.39069
H          6.59889        0.23487        4.96024
H          6.01227       -1.27785        5.63452
H          5.47441        0.23593        6.32672
C          4.43720       -1.70017        2.96394
H          3.64944       -1.68905        2.21799
H          4.38111       -2.64887        3.48807
H          5.38641       -1.66926        2.43664
C          2.66292       -0.53846        5.21065
H          1.82750       -0.80118        4.57215
H          2.38123        0.34352        5.77691
H          2.80971       -1.35234        5.91390
Si         3.09632        2.04361        2.43525
C          1.50598        1.02308        2.18539
H          0.93710        0.95637        3.10437
H          1.74057        0.01446        1.86658
H          0.86856        1.47125        1.43116
C          2.60101        3.71381        3.24984
H          3.46181        4.37997        3.29420
H          2.23190        3.57567        4.26243
H          1.82773        4.22444        2.68315
C          3.77958        2.46053        0.69042
H          4.68014        3.06399        0.77790
H          3.05732        3.02856        0.11135
H          4.02450        1.56541        0.12590
