93
CSD_code = KAPZEI | q = 0 | S = 0 | Stoichiometry = C31H53IN2PSi4Y | MND = 4
C          3.78002        3.76750       30.24188
H          2.77674        4.21479       30.33053
H          4.25127        4.23380       29.35967
C          5.04835        1.21726       29.47155
C          6.03180        1.86153       28.72200
H          5.86761        2.86164       28.34705
C          7.23023        1.22247       28.46152
H          7.99579        1.73849       27.90386
C          7.44580       -0.06261       28.93335
H          8.38469       -0.55724       28.73645
C          6.46098       -0.71206       29.66009
H          6.62843       -1.71455       30.02455
C          5.26188       -0.07770       29.93182
H          4.50156       -0.58138       30.50962
C          2.50099        1.88615       28.26637
C          3.05558        1.48352       27.05807
H          4.09997        1.20971       27.00768
C          2.26248        1.42403       25.92517
H          2.69307        1.10667       24.98736
C          0.92325        1.77042       25.99208
H          0.30901        1.72287       25.10577
C          0.37008        2.18145       27.19554
H         -0.67334        2.45399       27.24726
C          1.15674        2.24467       28.32907
H          0.73495        2.56347       29.27396
C          2.52523        1.21823       31.03142
C          1.95138       -0.00816       30.69935
H          2.10816       -0.42265       29.71195
C          1.17912       -0.68096       31.62695
H          0.74329       -1.63564       31.37303
C          0.95814       -0.12556       32.87865
H          0.34764       -0.64956       33.59844
C          1.51646        1.09900       33.20508
H          1.34191        1.53519       34.17614
C          2.30869        1.76835       32.28793
H          2.76637        2.71173       32.55838
C          7.47042        1.59929       32.29074
H          8.18303        2.40348       32.46531
H          6.93111        1.80757       31.36671
H          8.04825        0.69581       32.12089
C          7.40927        1.02049       35.28737
H          8.08289        1.84729       35.48874
H          8.01584        0.13474       35.12631
H          6.81370        0.85397       36.17801
C          5.28760       -0.24269       33.48391
H          4.38435       -0.05925       32.91027
H          4.98713       -0.67942       34.42959
H          5.87768       -0.98292       32.95344
C          3.12571        4.45802       35.00753
H          2.27284        4.05970       34.46393
H          3.52737        5.30476       34.45262
H          2.74603        4.84501       35.94851
C          3.66644        1.63177       36.16667
H          3.31297        0.91809       35.43160
H          2.82773        1.91703       36.79341
H          4.38277        1.11705       36.79696
C          5.61890        3.92681       36.68905
H          5.95592        4.91827       36.40563
H          6.49837        3.31649       36.86356
H          5.09010        4.01626       37.63365
C          7.64733        5.55117       34.06105
H          7.14658        4.57407       34.03509
H          8.08818        5.65584       35.04840
H          8.46846        5.53958       33.34759
C          7.44598        8.32972       32.75111
H          7.80426        7.95729       31.79649
H          8.30992        8.64912       33.32555
H          6.84100        9.20778       32.55335
C          5.92270        7.78022       35.37593
H          5.18481        7.17373       35.89031
H          5.49008        8.76145       35.22158
H          6.77741        7.89875       36.03364
C          2.19436        6.52364       32.11376
H          1.63436        6.85639       32.98143
H          2.26297        5.43880       32.17197
H          1.60813        6.77399       31.23466
C          3.65231        9.10661       32.81057
H          4.54920        9.71025       32.74168
H          3.38188        9.03521       33.85801
H          2.85584        9.63549       32.29758
C          4.37500        7.62239       30.20204
H          5.33649        8.11660       30.10732
H          3.63936        8.23235       29.68659
H          4.44683        6.67518       29.67129
N          5.07194        6.37295       32.84705
N          5.28418        2.76615       33.86511
Si         3.92038        7.37803       32.05444
Si         6.43391        7.00790       33.70095
Si         4.48708        3.15611       35.35019
Si         6.28658        1.37037       33.78181
P          3.49605        2.09696       29.78246
Y          5.32656        4.28606       32.19471
I          7.44084        4.90328       30.33260
