58
CSD_code = KATHOC | q = 0 | S = 0 | Stoichiometry = C19H33N2OReSi2 | MND = 6
Re         1.45952        3.36257        2.70258
Si        -1.40146        1.87209        1.67342
Si         3.56922        3.80609        5.31178
O          0.90411        2.42467        3.95691
N          0.67917        5.25945        2.76728
N          2.31480        4.53316        0.91161
C          2.64670        1.62259        2.00331
C          0.03245        2.96213        1.06121
C         -2.32293        2.69740        3.13256
C         -0.79915        0.14062        2.19858
C         -2.64465        1.68319        0.22886
C          3.33542        4.24347        3.47516
C          5.13448        4.71737        5.93419
C          3.80591        1.93088        5.56492
C          2.08734        4.41094        6.35936
C         -0.16802        5.56438        3.76082
C         -0.74964        6.80008        3.90752
C         -0.45423        7.80331        2.98231
C          0.41284        7.50634        1.95616
C          0.97100        6.22734        1.86337
C          3.16016        4.08557       -0.01527
C          3.62753        4.85676       -1.05962
C          3.19912        6.17677       -1.16008
C          2.32437        6.65575       -0.21098
C          1.89159        5.81511        0.82077
H          2.49147        0.77929        2.67583
H          2.35277        1.28302        1.00946
H          3.71956        1.81837        1.99669
H          0.50735        2.48181        0.20367
H         -0.37049        3.91428        0.69851
H         -2.62203        3.71670        2.90235
H         -3.21778        2.14536        3.40403
H         -1.67481        2.72369        4.00345
H         -0.05207        0.23985        2.97995
H         -1.61205       -0.46779        2.58359
H         -0.34552       -0.39653        1.37160
H         -2.18045        1.22105       -0.63560
H         -3.48293        1.06105        0.52224
H         -3.04281        2.64231       -0.08563
H          3.28960        5.33301        3.36851
H          4.21215        3.91548        2.91353
H          6.01486        4.42089        5.37441
H          5.03459        5.79398        5.84337
H          5.31960        4.49277        6.97880
H          2.94401        1.40169        5.17039
H          4.68670        1.56266        5.04836
H          3.90675        1.67655        6.61575
H          1.86694        5.46112        6.18603
H          1.20343        3.83355        6.10521
H          2.26987        4.28417        7.42226
H         -0.38066        4.77122        4.46365
H         -1.42355        6.98357        4.72863
H         -0.89413        8.78421        3.06980
H          0.66170        8.25788        1.22488
H          3.47458        3.05842        0.08899
H          4.31127        4.43683       -1.77926
H          3.54300        6.81156       -1.96239
H          1.97526        7.67385       -0.26358
