46
CSD_code = KAYRAD | q = 0 | S = 0 | Stoichiometry = C17H20FeO7Si | MND = 7
Fe         1.95014        3.12727        3.16599
C          0.11119        2.49109        2.43978
C         -0.72735        2.18377        3.69350
C          0.24359        2.59045        4.78738
C          0.32777        3.94854        4.75326
C         -0.58878        4.40953        3.62961
C          0.23043        3.93869        2.41160
C         -1.71107        3.36331        3.69381
C         -0.05091        1.60937        1.27881
C          0.30760        1.37104       -1.03030
C          0.14136        4.73471        1.16333
C          1.31590        5.42131       -0.74714
C          2.84641        4.65494        3.40477
C          2.89509        1.76452        3.80919
C          2.79137        2.82384        1.66236
C         -3.31352        5.32798        5.47125
C         -2.21541        2.72443        6.77995
C         -4.49148        2.52913        4.67879
O         -0.55194        0.50958        1.31750
O          0.41557        2.16531        0.14045
O         -0.85184        5.30436        0.78663
O          1.31392        4.77000        0.51533
O          3.45144        5.62383        3.44501
O          3.56116        0.90538        4.17018
O          3.39602        2.58516        0.72339
Si        -2.91957        3.48517        5.17753
H         -1.12820        1.17579        3.73332
H          0.64234        1.92100        5.53372
H          0.78946        4.60278        5.47721
H         -0.87367        5.45714        3.62014
H         -2.28147        3.37928        2.76191
H         -3.61188        5.81927        4.55015
H         -2.45584        5.86339        5.86762
H         -4.12599        5.44394        6.18140
H         -1.90215        1.69613        6.62931
H         -2.97310        2.72119        7.55774
H         -1.36287        3.27913        7.15863
H         -4.26512        1.49826        4.42319
H         -4.97224        2.98070        3.81642
H         -5.21624        2.51470        5.48648
H          0.94746        1.83740       -1.77549
H         -0.72800        1.34679       -1.37730
H          0.63557        0.35000       -0.82541
H          2.33254        5.34987       -1.12443
H          1.01956        6.46644       -0.63372
H          0.61798        4.92770       -1.42595
