44
CSD_code = KEKNAR | q = 0 | S = 0 | Stoichiometry = C15H23Cl3HfSi2 | MND = 8
Hf         2.18436       -0.63595        3.55774
Cl         3.40418       -1.97091        4.95855
Cl         0.16070       -1.71103        3.62910
Cl         2.66908       -1.65141        1.56698
Si         0.09261        1.09867        5.93006
Si         5.28378        1.22080        3.31551
C          2.70517        1.34722        4.71537
H          3.17452        1.38894        5.69013
C          1.30093        1.35362        4.50180
C          1.11274        1.45785        3.07912
C         -0.03925        1.50277        2.27190
H         -1.01915        1.48407        2.72438
C          0.10442        1.59796        0.90953
H         -0.77275        1.63586        0.28180
C          1.37196        1.65143        0.30644
H          1.43544        1.73148       -0.76781
C          2.52111        1.59989        1.05529
H          3.49251        1.64948        0.58477
C          2.42048        1.49661        2.45436
C          3.41594        1.39886        3.48807
C         -1.71231        0.83934        5.38853
H         -1.80507        0.00788        4.69723
H         -2.12353        1.72727        4.91834
H         -2.32953        0.61783        6.25350
C          0.78784       -0.44260        6.82657
H          0.80896       -1.30984        6.16445
H          0.18375       -0.71133        7.68795
H          1.80059       -0.27551        7.18815
C          0.21657        2.61597        7.08181
H         -0.39198        2.47027        7.96759
H         -0.13307        3.51731        6.58907
H          1.23530        2.79669        7.40963
C          5.61647       -0.43264        2.42540
H          5.16104       -1.26394        2.96674
H          6.68041       -0.63869        2.35197
H          5.21596       -0.43966        1.41485
C          6.01277        2.69573        2.35263
H          7.09175        2.60568        2.28705
H          5.79075        3.63776        2.84366
H          5.62739        2.75624        1.34034
C          6.00782        1.14152        5.07842
H          5.62416        0.28138        5.62105
H          5.78132        2.03403        5.65356
H          7.08795        1.04720        5.04172
