57
CSD_code = KEQCEO | q = 0 | S = 0 | Stoichiometry = C18H30MoN4O2Si2 | MND = 6
Mo        10.32002        0.91016        0.27401
Si         9.47437       -2.17968        1.43604
Si        11.06836        4.14524       -0.50682
O         11.48535        1.01425        1.42929
O          8.84144        1.39836        0.80310
N         10.15828       -1.12552        0.22414
N         11.75351       -0.27565       -1.05302
N         10.71286        2.49480       -0.95199
N          9.53441        0.86364       -1.87650
C         11.14348       -1.40546       -0.62870
C         11.55226       -2.66497       -1.11246
H         11.04587       -3.55326       -0.77405
C         12.58683       -2.71275       -2.01481
H         12.92283       -3.66274       -2.40567
C         13.20631       -1.53464       -2.43138
H         14.02249       -1.56055       -3.13528
C         12.75839       -0.32456       -1.92546
C         13.36502        0.98238       -2.33229
H         13.28411        1.69030       -1.50866
H         12.82117        1.39197       -3.18514
H         14.40702        0.85467       -2.61550
C          8.94791       -0.99415        2.82386
H          9.81764       -0.43888        3.17735
H          8.48926       -1.49660        3.66942
H          8.24616       -0.25827        2.43634
C          7.99094       -3.15613        0.71062
H          7.16244       -2.49555        0.47301
H          7.63052       -3.88077        1.43314
H          8.25241       -3.69807       -0.19407
C         10.79691       -3.40976        2.08512
H         11.78710       -2.96264        2.05885
H         10.83048       -4.32910        1.50892
H         10.58774       -3.68505        3.11383
C         10.08787        2.08420       -2.05552
C          9.98603        2.74174       -3.29842
H         10.44064        3.70988       -3.42549
C          9.31045        2.11357       -4.31602
H          9.21661        2.59059       -5.28132
C          8.74451        0.85629       -4.10678
H          8.20871        0.35495       -4.89664
C          8.87743        0.25762       -2.86392
C          8.30457       -1.09338       -2.56747
H          8.04408       -1.15191       -1.51191
H          9.04913       -1.86354       -2.77589
H          7.42758       -1.28541       -3.18089
C         12.72859        4.70838       -1.28690
H         12.76514        4.53446       -2.35862
H         13.57184        4.19002       -0.84054
H         12.87739        5.77035       -1.12269
C          9.65123        5.30317       -1.08452
H          9.77545        5.64170       -2.10843
H          9.59971        6.18795       -0.45807
H          8.69313        4.79399       -1.01571
C         11.14015        4.10090        1.39023
H         11.89258        3.38836        1.72099
H         10.18443        3.74737        1.77964
H         11.36137        5.06620        1.83402
