52
CSD_code = KIFZAC | q = 0 | S = 0 | Stoichiometry = C22H24CrO4Si | MND = 9
Cr         7.61133       10.95567        5.06932
C          5.52845       10.61670        5.84892
C          5.45026       10.81615        4.44541
C          5.98724       11.98003        3.88860
C          6.60256       12.95649        4.69642
C          6.67337       12.76551        6.07261
C          6.13303       11.59591        6.64331
H          6.12476       11.48941        7.72243
H          7.07895       13.53789        6.71517
H          6.95066       13.88001        4.25056
H          5.85669       12.17355        2.83029
C          4.70502        9.84609        3.57106
C          3.18917        9.85467        3.87616
C          2.79235       11.30116        4.13326
O          2.65223       12.08233        3.21351
C          2.64280       11.74691        5.52176
Si         2.13115       13.57541        5.69116
C          3.51753       14.67558        4.98432
H          3.23547       15.72348        5.01905
H          3.72108       14.42094        3.94962
H          4.44077       14.56470        5.54696
C          1.93049       13.95217        7.55110
H          1.62411       14.98305        7.69236
H          1.17444       13.32429        8.01178
H          2.85795       13.81348        8.09810
C          0.46988       13.84332        4.80221
H          0.14624       14.87636        4.88498
H         -0.31349       13.21848        5.22245
H          0.55603       13.60485        3.74752
C          2.87755       10.91378        6.53984
C          3.32035        9.49418        6.37271
C          2.81385        8.93033        5.03779
C          1.32215        8.75953        5.08885
C          0.70685        7.60024        4.95561
H         -0.36547        7.51577        4.99451
H          1.25094        6.68277        4.79955
H          0.75629        9.66907        5.24170
H          3.26745        7.94665        4.86927
C          4.86473        9.43254        6.49630
H          5.13266        9.41232        7.55501
H          5.22036        8.50080        6.04929
H          2.89829        8.88376        7.17906
H          2.79189       11.27224        7.55675
H          2.66396        9.51659        2.97609
H          4.85177       10.12875        2.52684
H          5.09284        8.83195        3.69993
C          9.05358       10.79831        6.17153
O          9.99784       10.64169        6.81864
C          8.92671       11.10535        3.81620
O          9.79658       11.13150        3.05706
C          7.96055        9.19068        4.82056
O          8.22285        8.07431        4.66420
