59
CSD_code = KIGTOK | q = 0 | S = 0 | Stoichiometry = C20H33BFeO2Si2 | MND = 8
Fe         5.68520        7.68747       11.45335
O          3.90443        8.57048        9.37908
C          4.61102        8.29566       10.24625
O          3.72430        5.67359       10.92959
C          4.16764        6.53347       11.62323
C          6.98179        6.75834       10.14706
C          6.99047        6.01905       11.35657
C          7.41622        6.90156       12.38115
C          7.83256        8.13179       11.77829
C          7.55413        8.05239       10.40630
C          6.58391        6.21749        8.81364
H          7.36214        5.57447        8.40103
H          6.39412        7.02513        8.11321
H          5.67334        5.63181        8.91495
C          6.61236        4.58376       11.48868
H          7.41752        3.94524       11.12274
H          5.72139        4.36965       10.90192
H          6.41030        4.32529       12.52465
C          7.66020        6.53500       13.80712
H          8.69578        6.22347       13.95374
H          7.00894        5.71995       14.10960
H          7.46425        7.38226       14.45981
C          8.49281        9.25200       12.50787
H          9.56836        9.07893       12.58077
H          8.09437        9.33255       13.51482
H          8.33400       10.19896       12.00002
C          7.88665        9.05345        9.34561
H          8.70441        8.68269        8.72574
H          8.19477       10.00065        9.77981
H          7.02966        9.23105        8.69927
B          4.33267        7.26561       12.88620
C          4.97495        8.68483       13.20113
Si         4.98812       10.55477       13.05940
C          5.40097       11.01869       11.26667
H          6.05956       10.27240       10.83802
H          5.87468       11.99167       11.18906
H          4.50701       11.04155       10.65502
C          6.22848       11.39454       14.25011
H          6.53835       10.73033       15.04847
H          5.78520       12.27242       14.71146
H          7.12222       11.71983       13.72750
C          3.21214       11.09887       13.51362
H          2.98795       10.89244       14.55531
H          2.48168       10.57022       12.90947
H          3.06900       12.16250       13.34932
C          4.77196        7.78344       14.20995
Si         4.66367        7.62959       16.07461
C          2.87382        8.05634       16.58208
H          2.62425        9.08232       16.32983
H          2.72555        7.93496       17.65109
H          2.16194        7.41294       16.07489
C          5.05784        5.82148       16.54546
H          6.11891        5.60496       16.46574
H          4.52915        5.12537       15.90164
H          4.76116        5.61062       17.56895
C          5.87971        8.78525       16.98734
H          6.88671        8.71594       16.58583
H          5.93656        8.52565       18.04088
H          5.56543        9.82228       16.92472
