73
CSD_code = KIMDIV | q = 0 | S = 0 | Stoichiometry = C33H36O2SiW | MND = 10
W          1.13937        3.60705        3.39740
Si         1.52543        4.31675        5.76925
O         -0.09980        5.96808        1.78771
O         -1.87293        4.07603        3.96862
C          0.40730        5.12804        2.40107
C         -0.72757        3.94276        3.85066
C          2.21700        5.69500        4.62220
C          1.61039        6.95123        4.47987
H          0.86567        7.25377        5.20205
C          1.97623        7.81637        3.47627
H          1.51130        8.78929        3.40334
C          2.94099        7.45329        2.52983
C          3.55708        6.22274        2.65587
H          4.33573        5.94570        1.95681
C          3.19537        5.33875        3.67398
H          3.82009        4.47053        3.85729
C          3.28794        8.39367        1.41810
H          4.15578        8.04488        0.86340
H          3.49463        9.38913        1.80769
H          2.44663        8.47462        0.72982
C          2.95931        3.55076        6.76551
C          4.25615        4.05392        6.74862
H          4.47216        4.94304        6.17391
C          5.27142        3.44409        7.46352
H          6.27085        3.85654        7.43244
C          5.02526        2.30916        8.22466
C          3.72768        1.81004        8.26125
H          3.51212        0.93372        8.85761
C          2.71725        2.42218        7.54554
H          1.71236        2.02667        7.59503
C          6.11676        1.65131        9.01272
H          7.09618        1.93812        8.63708
H          6.02506        0.56756        8.97087
H          6.05301        1.95112       10.05937
C          0.38799        5.11578        7.07130
C          0.67354        5.04469        8.43127
H          1.56416        4.52951        8.76065
C         -0.15860        5.62301        9.37186
H          0.08995        5.55164       10.42213
C         -1.31013        6.29491        8.98528
C         -1.60375        6.36794        7.62821
H         -2.49791        6.88309        7.30549
C         -0.77277        5.78635        6.69111
H         -1.03102        5.84761        5.64426
C         -2.20829        6.94141        9.99561
H         -2.03082        6.53809       10.98979
H         -3.25377        6.79065        9.73404
H         -2.02350        8.01586       10.02593
C          0.63997        1.52750        2.54592
C          1.54769        1.30939        3.63991
C          2.78577        1.91796        3.30893
C          2.66747        2.47635        1.98991
C          1.35898        2.21572        1.51627
C         -0.70170        0.87523        2.39396
H         -0.58631       -0.12622        1.97384
H         -1.34340        1.45189        1.72989
H         -1.20108        0.78650        3.35734
C          1.28188        0.40675        4.80604
H          1.98573        0.59342        5.61369
H          1.38612       -0.63551        4.49503
H          0.27157        0.54516        5.18805
C          4.07451        1.68306        4.04324
H          3.93405        1.70887        5.12238
H          4.83325        2.42038        3.78479
H          4.46804        0.69894        3.77704
C          3.78834        2.99523        1.14005
H          4.12520        2.21166        0.45679
H          4.64155        3.30208        1.74173
H          3.46719        3.84571        0.53888
C          0.85694        2.48030        0.13011
H          1.33578        3.35743       -0.30144
H         -0.21916        2.64438        0.12804
H          1.07238        1.62418       -0.51329
