99
CSD_code = KIRVIS | q = 0 | S = 0 | Stoichiometry = C35H53FeNO6SSi2 | MND = 8
Fe         0.63470        1.87822        4.67742
S          1.24700       -1.10489        8.53585
Si         4.07170        1.09695        3.08930
Si         1.60158        5.15508        6.54752
C          2.91359        1.75578        4.43829
C          1.91193        3.41582        5.85780
C          1.85950        2.15668        6.47934
C          2.45871        1.16193        5.63031
C          2.76025        3.22895        4.64056
C          2.51716       -0.12908        6.38853
H          2.25087       -1.02079        5.82092
H          3.51145       -0.28412        6.83463
C          1.53075        1.51672        7.79423
H          2.32075        1.72772        8.53121
H          0.57106        1.78221        8.23348
C          3.22320        1.25938        1.36426
H          3.89507        0.83193        0.61276
C          1.91181        0.48079        1.29448
H          1.19123        0.88892        2.00430
H          2.05739       -0.56982        1.53118
H          1.47951        0.54943        0.29726
C          2.98015        2.71662        0.98115
H          2.42208        2.77913        0.04785
H          3.92013        3.24466        0.85228
H          2.41515        3.23068        1.75381
C          5.63167        2.23181        3.12678
H          5.28284        3.22541        2.83185
C          6.24462        2.38586        4.51828
H          6.68502        1.45562        4.86524
H          5.49071        2.69982        5.23553
H          7.02707        3.14298        4.49981
C          6.70328        1.79797        2.12812
H          7.51160        2.52722        2.10062
H          6.29139        1.70973        1.12613
H          7.12994        0.83823        2.41044
C          5.41402       -1.02660        4.53223
H          5.42431       -2.07900        4.81343
H          5.18660       -0.44017        5.41712
H          6.41344       -0.76368        4.19495
C          4.40113       -0.77805        3.41641
H          3.45050       -1.22676        3.72608
C          4.86699       -1.51776        2.16323
H          5.79445       -1.09331        1.78871
H          4.12674       -1.46620        1.37110
H          5.04530       -2.56813        2.39128
C          3.27557        6.09995        6.37973
H          3.46797        6.17669        5.30599
C          0.27148        6.04602        5.47103
H          0.07477        7.02728        5.91502
C          0.91161        4.99856        8.34373
H          0.19748        4.16797        8.34847
C          3.21202        7.51768        6.94521
H          3.08436        7.49855        8.02507
H          2.38605        8.07524        6.51121
H          4.13519        8.05295        6.72782
C         -1.05138        5.28427        5.45154
H         -1.79763        5.82909        4.87510
H         -1.43977        5.13326        6.45512
H         -0.91735        4.30445        4.99065
C          4.46567        5.35062        6.97780
H          5.39266        5.86805        6.73522
H          4.52686        4.34448        6.57135
H          4.39175        5.28257        8.05925
C          1.98957        4.68310        9.37887
H          2.61674        5.55560        9.54417
H          2.62333        3.86185        9.05789
H          1.53701        4.41276       10.33202
C          0.15674        6.24934        8.79141
H         -0.21575        6.11929        9.80684
H         -0.69107        6.45594        8.14585
H          0.81000        7.11764        8.78165
C          0.75592        6.28135        4.04299
H          1.08583        5.35137        3.58802
H          1.59354        6.97221        4.02790
H         -0.04278        6.69895        3.43136
C          0.16102       -2.09448        7.53130
C         -1.12202       -1.63425        7.30661
H         -1.45697       -0.75025        7.82490
C          0.63798       -3.22256        6.89622
H          1.64507       -3.55023        7.10235
C         -1.94266       -2.32170        6.43263
H         -2.94715       -1.97006        6.24904
C         -1.48424       -3.46198        5.77660
C         -0.18953       -3.90650        6.02167
H          0.17477       -4.79105        5.52020
C         -2.36827       -4.17774        4.80424
H         -2.35838       -3.65483        3.84782
H         -3.39548       -4.20205        5.16043
H         -2.02525       -5.19563        4.63912
C         -0.84942        1.82824        5.60950
C          0.08433        2.81166        3.20346
C          0.16094        0.24632        4.25207
N          1.51837        0.10852        7.41952
O          2.46511       -1.81947        8.79699
O          0.53907       -0.50979        9.62882
O          3.21163        4.10870        3.93010
O         -1.81295        1.71254        6.21701
O         -0.45545        3.25542        2.30034
O         -0.18156       -0.82863        4.04872
