63
CSD_code = KIRVUE | q = 0 | S = 0 | Stoichiometry = C23H29FeNO6SSi2 | MND = 8
Fe         0.25750        3.82256       11.80509
S         -2.43101        0.49004        9.78917
Si        -1.01232        6.69229        9.78448
Si         3.43022        2.85606       10.06669
N         -1.42645        1.65044        9.14249
O          2.14531        5.84516        9.70041
O         -3.76858        0.93499        9.53649
O         -1.98793       -0.76409        9.25921
O          1.91055        5.78288       13.22891
O          0.93731        1.55669       13.48708
O         -2.18035        4.39794       13.26879
C          1.65669        3.50144       10.14850
C         -0.12956        5.03992       10.03339
C          0.45400        2.80396        9.87705
C         -0.62415        3.72946        9.81157
C          1.35581        4.94500        9.90548
C          0.00746        1.47442        9.35683
H          0.49940        1.25676        8.39915
H          0.18036        0.63035       10.02613
C         -1.82836        3.05194        9.24075
H         -2.74494        3.12858        9.82546
H         -2.03732        3.44126        8.23470
C          1.28420        5.03689       12.63746
C         -1.24074        4.12664       12.67315
C          0.63435        2.42195       12.79974
C         -0.37760        7.86291       11.14413
H          0.70447        7.93721       11.09895
H         -0.64366        7.50034       12.13405
H         -0.78309        8.86404       11.03788
C         -0.56658        7.30750        8.03721
H         -0.97545        8.29605        7.85226
H         -0.94520        6.64323        7.26529
H          0.51172        7.36590        7.92605
C         -2.88715        6.40156        9.96899
H         -3.12548        5.93261       10.91851
H         -3.28027        5.76906        9.17985
H         -3.42341        7.34342        9.92842
C          4.42895        3.79074       11.38897
H          5.48444        3.54086       11.34925
H          4.07154        3.56323       12.39015
H          4.33603        4.86191       11.23964
C          4.06853        3.20127        8.30449
H          3.98978        4.26041        8.07943
H          3.50017        2.65872        7.55405
H          5.11058        2.91487        8.20067
C          3.39411        0.98767       10.44622
H          4.40199        0.59809       10.53888
H          2.89853        0.42448        9.66228
H          2.87785        0.78176       11.37892
C         -2.14847        0.47423       11.55771
C         -1.77955        0.38157       14.30349
C         -1.30154       -0.47446       12.10031
H         -0.82319       -1.18410       11.44334
C         -2.82481        1.36568       12.36609
H         -3.51730        2.06226       11.92123
C         -1.11873       -0.51745       13.46972
H         -0.46039       -1.25622       13.90181
C         -2.63725        1.31733       13.73717
H         -3.17050        2.00781       14.37342
C         -1.55772        0.33186       15.78205
H         -0.52699        0.60142       16.00965
H         -1.72874       -0.67425       16.16026
H         -2.21859        1.02054       16.30096
