45
CSD_code = KIVBOG | q = 0 | S = 0 | Stoichiometry = C10H18Cl3F6N2PS2Si2Ti | MND = 5
Ti       -14.72627       16.63220        9.02515
P        -17.19391       17.40768        9.15117
Cl       -13.13489       17.53842       10.16985
N        -15.89085       18.29487        9.25048
F        -19.92286       19.07850        5.66111
S        -18.23141       17.60819        7.27317
Si       -15.58945       20.02559        9.13984
C        -19.63250       18.43136        7.90530
Cl       -13.79857       14.67750        9.13443
N        -16.57362       15.96236        9.41687
F        -21.59954       18.15501        6.62413
S        -18.80506       17.93034       10.45530
Si       -17.30640       14.42100        8.94109
C        -19.88512       18.54172        9.22645
Cl       -14.39905       16.91115        6.91979
F        -21.03661       20.17602        7.11780
C        -20.55478       18.96460        6.83250
C        -21.08954       19.25354        9.79644
F        -22.21356       19.00590        9.12388
F        -20.91626       20.58224        9.81351
C        -17.16480       20.90349        8.51351
H        -17.46720       20.55126        7.53066
H        -16.98536       21.96950        8.43022
H        -18.00336       20.77514        9.19326
F        -21.31762       18.88682       11.06087
C        -15.14898       20.56705       10.91327
H        -14.33382       19.96427       11.30604
H        -15.99376       20.46522       11.59054
H        -14.83443       21.60466       10.93107
C        -14.16640       20.16555        7.88283
H        -14.47611       19.85207        6.88695
H        -13.32809       19.53582        8.18119
H        -13.80688       21.18660        7.81270
C        -19.20711       14.60712        8.99980
H        -19.53949       15.03613        9.94154
H        -19.67507       13.63326        8.90712
H        -19.59183       15.22482        8.19317
C        -16.73702       13.17195       10.25705
H        -17.13766       13.41339       11.23857
H        -15.65404       13.14432       10.33443
H        -17.07831       12.17671        9.99621
C        -16.68565       14.13561        7.15722
H        -15.60580       13.98687        7.15034
H        -16.90124       14.99384        6.51838
H        -17.14200       13.26143        6.70439
