89
CSD_code = KOCBUC | q = 0 | S = 0 | Stoichiometry = C31H51N2O2ScSi2 | MND = 5
Sc        11.91691        5.65995        7.59819
Si        15.38741        4.39687        7.68917
Si         9.52689        4.93790        4.85923
O         10.80227        3.39308        8.49703
O         14.13108        9.53649        7.51681
N         11.77376        6.56958        9.59198
N         12.83928        7.74250        7.13157
C         13.25399        8.50167        9.44506
C         12.41587        7.59738       10.17137
C         10.87978        5.84983       10.42655
C         13.38072        8.52319        8.01729
C         11.33003        4.74461       11.16460
C          9.54129        6.25921       10.52529
C         13.66185        4.29917        6.92462
H         13.36752        3.23870        6.95674
H         13.78852        4.49648        5.84679
C         13.13892        8.29170        5.80077
C         13.97057        9.49231       10.14468
H         14.61712       10.14074        9.57479
C          9.39476        3.17346        8.60571
H          8.97161        3.05136        7.60161
H          8.96202        4.05635        9.07692
C          9.92222        5.86589        6.45296
H          9.15893        5.55480        7.18825
H          9.69897        6.93176        6.26768
C         12.29872        7.84408       11.57012
H         11.63686        7.21110       12.14326
C          8.66922        5.53904       11.32938
H          7.63718        5.85246       11.40355
C          9.08372        7.48663        9.79443
H          9.51321        7.51472        8.78882
H          7.99824        7.51761        9.73048
H          9.42528        8.37905       10.32133
C         13.86465        9.65946       11.49874
H         14.42947       10.42557       12.00650
C         12.77584        4.35489       11.09284
H         13.10785        4.33611       10.04734
H         13.38911        5.08732       11.62057
H         12.93921        3.37973       11.54731
C         11.39892        2.10179        8.57103
H         12.45242        2.22586        8.81696
H         11.30400        1.59531        7.60041
C         12.99608        8.82791       12.21034
H         12.87712        8.96001       13.27685
C         10.43668        4.05769       11.97111
H         10.78739        3.22064       12.55969
C         13.73123        7.23814        4.86963
H         13.99531        7.69825        3.91931
H         14.62247        6.79698        5.31134
H         12.99716        6.45197        4.69309
C          9.10997        4.44453       12.05200
H          8.42476        3.90425       12.68895
C         11.86071        8.87385        5.18830
H         12.09040        9.35319        4.23906
H         11.13964        8.07901        5.01799
H         11.42382        9.61033        5.86037
C         15.62407        6.00310        8.71479
H         16.51211        5.95585        9.33843
H         15.73356        6.86942        8.06794
H         14.77250        6.19199        9.36717
C         15.72902        2.91347        8.86151
H         16.74279        2.94492        9.24830
H         15.05792        2.90472        9.71465
H         15.60980        1.96847        8.33995
C         10.60719        1.35656        9.64324
H         10.98059        1.62511       10.62951
H         10.66876        0.27776        9.52242
C         14.15718        9.41264        6.11152
H         15.17425        9.14980        5.79798
H         13.88353       10.37357        5.66935
C          9.18794        1.89916        9.44508
H          8.56194        1.18639        8.91064
H          8.71454        2.12989       10.39657
C         16.81314        4.37742        6.40024
H         17.78564        4.47245        6.87420
H         16.81665        3.45423        5.82852
H         16.71633        5.19578        5.69183
C         10.39226        3.22410        4.81564
H         10.48109        2.84827        3.80089
H         11.39373        3.28583        5.23805
H          9.83829        2.48259        5.38370
C          7.65342        4.59265        4.59058
H          7.47493        3.99868        3.69891
H          7.22723        4.05269        5.43205
H          7.09348        5.51695        4.48348
C         10.10924        5.88853        3.29749
H          9.80139        5.37184        2.39361
H          9.68613        6.88753        3.25710
H         11.19002        5.98488        3.26305
