42
CSD_code = KOYDUX | q = 0 | S = 0 | Stoichiometry = C12H22AsMoO4PSi | MND = 6
Mo         6.91366        4.89285       -2.58465
As         6.18191        2.55012       -2.15659
P          9.24649        4.41132       -2.25185
Si         9.73315        2.41481       -1.31778
C          7.35473        6.74024       -2.96412
C          6.73932        5.29526       -0.68184
C          7.08539        4.45686       -4.48060
C          5.02745        5.28226       -2.83541
C          7.28922        0.97152       -1.75048
C          8.70884        1.11520       -2.29400
C          5.17452        1.82762       -3.65282
C          4.83299        2.32896       -0.77328
C         10.14142        5.58137       -1.16898
C         10.32991        4.44319       -3.72512
C          9.14401        2.53417        0.49747
C         11.59027        1.97723       -1.41620
O          7.58989        7.83528       -3.19587
O          6.61575        5.53518        0.43115
O          7.17512        4.20442       -5.59327
O          3.91635        5.51720       -2.98591
H          6.79266        0.10060       -2.20015
H          7.30829        0.81550       -0.66757
H          9.21336        0.14564       -2.27810
H          8.64954        1.42750       -3.34476
H          4.69207        0.88169       -3.38888
H          4.41023        2.55163       -3.94944
H          5.83834        1.66380       -4.50591
H          4.49411        1.28983       -0.71724
H          5.23188        2.62757        0.19934
H          3.98080        2.97434       -1.00525
H         11.18861        5.29691       -1.05788
H         10.07605        6.57771       -1.61049
H          9.65799        5.60194       -0.19288
H         11.37228        4.28164       -3.44815
H         10.01024        3.67051       -4.42427
H         10.22400        5.41638       -4.20876
H          9.11833        1.56270        0.98249
H          9.79697        3.17448        1.08343
H          8.14020        2.95985        0.53298
H         11.79944        1.07758       -0.84861
H         11.90764        1.80444       -2.43912
H         12.20114        2.77370       -1.00564
