118
CSD_code = LAFZID | q = 0 | S = 0 | Stoichiometry = C43H68ClIrN3PSi | MND = 6
Ir         0.14780        1.73790        4.17901
H         -0.09810        3.06841        4.92888
Cl         0.41138       -0.33311        2.88605
P         -0.68752        0.59722        5.99500
Si         2.34153        1.49544        4.92016
N         -2.50737        1.68033        3.82426
N          0.64651        2.82188        2.47380
N          1.90832        4.69636       -1.06103
C         -2.50859        0.77779        6.09768
C         -3.20397        1.36180        5.03664
C         -4.57310        1.57303        5.16281
H         -5.12752        2.02555        4.35326
C         -5.25018        1.19983        6.30718
H         -6.31409        1.37651        6.37946
C         -4.57947        0.58198        7.35359
C         -3.21352        0.38013        7.22841
H         -2.68660       -0.10659        8.03478
C         -5.29652        0.15688        8.59961
H         -5.01651        0.80173        9.43297
H         -5.03149       -0.86507        8.86526
H         -6.37393        0.21664        8.46824
C         -0.54368       -1.24474        6.26019
H         -0.91622       -1.45484        7.27102
C         -1.39340       -2.03462        5.26792
H         -2.44156       -1.72489        5.33039
H         -1.03145       -1.84045        4.25770
C         -1.27846       -3.52854        5.55932
H         -1.66457       -3.73622        6.56188
H         -1.88558       -4.09060        4.84585
C          0.17705       -3.97701        5.47054
H          0.25396       -5.04492        5.68857
H          0.53896       -3.81192        4.45413
C          1.03961       -3.17575        6.44088
H          2.08349       -3.48223        6.35089
H          0.71769       -3.37800        7.46682
C          0.91295       -1.68424        6.14320
H          1.25053       -1.49061        5.12501
H          1.54734       -1.10197        6.81510
C         -0.09354        1.29762        7.64354
H          0.94594        1.56279        7.40707
C         -0.05637        0.42092        8.89532
H         -1.06434        0.18058        9.23660
H          0.47742       -0.50967        8.70528
C          0.66117        1.17640       10.01532
H          0.69715        0.55377       10.91240
H          1.68839        1.38234        9.70758
C         -0.04662        2.49119       10.32508
H          0.48697        3.02394       11.11505
H         -1.05666        2.28356       10.68698
C         -0.12717        3.35543        9.07096
H          0.88096        3.61592        8.74332
H         -0.66189        4.28220        9.28978
C         -0.83564        2.59779        7.95220
H         -0.87290        3.21147        7.05060
H         -1.86213        2.38045        8.25531
C         -2.78948        0.66711        2.81958
H         -2.46729       -0.30633        3.18307
H         -2.23634        0.89506        1.90993
H         -3.86042        0.61556        2.56850
C         -2.82573        3.00635        3.31943
H         -3.84793        3.08866        2.92347
H         -2.13626        3.25152        2.51188
H         -2.69381        3.73360        4.11844
C          3.52983        2.74946        4.08628
C          4.05714        2.51993        2.80720
C          4.86276        3.47850        2.21562
H          5.26975        3.31002        1.22889
C          5.16527        4.67054        2.85998
C          4.68870        4.86356        4.14737
H          4.94067        5.77313        4.67161
C          3.89550        3.91345        4.77115
C          3.78026        1.19941        2.12926
H          2.75330        0.90188        2.35315
C          4.71159        0.13554        2.71779
H          5.74988        0.38166        2.50077
H          4.48573       -0.83835        2.28972
H          4.58344        0.07844        3.79638
C          3.92397        1.22925        0.60826
H          3.36753        2.06253        0.18359
H          3.52716        0.30616        0.19067
H          4.96745        1.31098        0.30930
C          6.03149        5.70620        2.18303
H          6.20698        5.38350        1.14912
C          7.38832        5.80259        2.88485
H          7.26229        6.12625        3.91515
H          8.03242        6.51601        2.37412
H          7.87918        4.83193        2.89039
C          5.35160        7.07652        2.14475
H          4.36990        7.00578        1.68060
H          5.95303        7.78100        1.57317
H          5.22525        7.47362        3.14858
C          3.41876        4.15110        6.18563
H          3.01536        3.20676        6.56393
C          4.56685        4.56915        7.10756
H          5.39967        3.87722        7.00805
H          4.23380        4.56420        8.14346
H          4.91849        5.57082        6.87406
C          2.29486        5.18784        6.21654
H          2.60458        6.10575        5.72127
H          2.02515        5.42523        7.24363
H          1.41341        4.79441        5.71627
C          0.34763        2.33085        1.26585
H         -0.17310        1.38456        1.23649
C          0.71047        2.91913        0.07790
H          0.43947        2.42340       -0.83905
C          1.45891        4.10810        0.07834
C          1.70509        4.65523        1.35016
H          2.22929        5.58725        1.46816
C          1.29094        3.99845        2.48104
H          1.49716        4.43415        3.44609
C          1.61616        4.11566       -2.34873
H          2.13438        3.16077       -2.49441
H          1.92831        4.80184       -3.13258
H          0.54237        3.95052       -2.45586
C          2.89222        5.75060       -0.98278
H          2.44422        6.68074       -0.61971
H          3.30627        5.93530       -1.97087
H          3.71057        5.47093       -0.31372
