79
CSD_code = LAWNAY | q = 0 | S = 0 | Stoichiometry = C30H38Cl3N3P2Si2Ti | MND = 4
Ti         3.06267        0.53525       14.74995
Cl         3.12765        2.64733       15.27770
Cl         1.96261       -0.38117       16.36974
Cl         5.12687       -0.13464       15.03488
N          2.28025        0.47366       13.20617
P          1.14629       -0.02784       12.24419
N          1.55902       -1.17827       11.13933
P          3.00789       -1.15997       10.45770
N          4.05545       -2.28023       11.08239
Si         3.32106       -3.47695       12.17693
C          4.61710       -4.79165       12.64041
C          1.92236       -4.31745       11.18569
C          2.77081       -2.71188       13.82657
Si         5.78241       -2.24492       10.65332
C          6.81719       -1.93632       12.22464
C          6.15087       -0.89700        9.35387
C          6.22468       -3.92931        9.84944
C          0.45143        1.40809       11.35948
C         -0.49567        1.24094       10.35880
C         -0.97187        2.34488        9.67451
C         -0.50803        3.61117        9.99685
C          0.42485        3.77817       11.00817
C          0.90654        2.67585       11.69164
C         -0.26645       -0.71182       13.15970
C         -0.65501        0.00247       14.28825
C         -1.68525       -0.47020       15.07939
C         -2.32517       -1.65395       14.74169
C         -1.93814       -2.36302       13.61617
C         -0.90523       -1.89512       12.82182
C          3.76755        0.47951       10.62870
C          3.40992        1.53799        9.80651
C          3.80405        2.82528       10.13276
C          4.52258        3.06369       11.29364
C          4.88804        2.00735       12.11536
C          4.51643        0.71551       11.77755
C          2.67615       -1.53328        8.71043
C          1.63190       -0.85224        8.09237
C          1.30546       -1.12213        6.77607
C          2.00788       -2.08713        6.07181
C          3.03024       -2.78648        6.69143
C          3.36354       -2.51134        8.00638
H          4.86358       -5.45056       11.81873
H          5.53801       -4.35921       13.00962
H          4.20655       -5.40813       13.43169
H          1.39416       -3.58078       10.58729
H          2.31050       -5.07747       10.51235
H          1.20437       -4.79893       11.84270
H          1.92964       -2.03161       13.69149
H          2.46164       -3.48291       14.52762
H          3.58956       -2.15129       14.29050
H          6.21350       -1.89669       13.12754
H          7.55996       -2.71590       12.35934
H          7.35510       -0.99495       12.15941
H          6.32864        0.06845        9.81551
H          7.04564       -1.15632        8.79516
H          5.34230       -0.77452        8.63946
H          6.94525       -4.46216       10.46021
H          5.36539       -4.57973        9.72248
H          6.68160       -3.78699        8.87411
H         -0.85187        0.24503       10.13192
H         -1.70683        2.22203        8.89178
H         -0.88113        4.47156        9.46045
H          0.77511        4.76737       11.26368
H          1.63808        2.77143       12.48841
H         -0.12751        0.92346       14.53341
H         -1.98675        0.07638       15.96062
H         -3.12660       -2.02658       15.36268
H         -2.43960       -3.28546       13.36083
H         -0.57873       -2.43701       11.94687
H          2.83198        1.35943        8.91041
H          3.53027        3.64670        9.48712
H          4.79997        4.07348       11.55686
H          5.46021        2.18417       13.01962
H          4.82108       -0.12277       12.39100
H          1.06882       -0.12458        8.65942
H          0.49861       -0.58462        6.29978
H          1.75117       -2.30056        5.04482
H          3.56810       -3.55042        6.14956
H          4.15312       -3.05751        8.49571
