138
CSD_code = LEKCIP | q = 0 | S = 0 | Stoichiometry = C71H58MoN2O3Si3 | MND = 6
Mo         1.88268        9.73787       12.17993
Si         0.01248       11.04705       14.77760
Si         0.22369        6.74334       11.54678
Si         4.33235        9.57026        9.74729
O          0.68261       10.36874       13.49629
O          0.92492        8.15393       11.82527
O          3.02646        9.61274       10.66420
N          2.63856       11.70627       12.20651
N          0.68336       10.75722       10.77815
C          3.12503        9.03384       13.40440
C          4.01171        8.67791       14.40656
C          3.97853        9.34179       15.65489
H          3.24633       10.12502       15.79904
C          4.83168        8.97756       16.67059
H          4.78039        9.49254       17.61996
C          5.75330        7.95479       16.48845
H          6.42086        7.67432       17.28940
C          5.80559        7.29383       15.26849
H          6.52101        6.49685       15.11960
C          4.95517        7.63894       14.24264
H          4.99271        7.12062       13.29536
C          3.51299       12.22018       13.07413
H          3.72789       11.60383       13.93751
C          4.13268       13.43632       12.90329
H          4.82958       13.79995       13.63872
C          3.87057       14.16064       11.73612
H          4.37890       15.09224       11.54283
C          2.94786       13.66715       10.84826
H          2.71721       14.21440        9.94868
C          2.30591       12.44495       11.10940
C          1.22582       11.91657       10.31482
C          0.68995       12.55858        9.18563
H          1.13732       13.46726        8.81737
C         -0.40233       12.02271        8.54712
H         -0.82315       12.50281        7.67722
C         -0.96092       10.84063        9.04958
H         -1.81844       10.38591        8.58118
C         -0.38545       10.25960       10.15594
H         -0.78413        9.34203       10.57202
C          0.89773       12.73011       14.96878
C          1.81646       12.99952       15.97709
H          1.99637       12.25611       16.74054
C          2.49847       14.20318       16.02306
H          3.20481       14.39388       16.81868
C          2.27690       15.16350       15.05128
H          2.80750       16.10420       15.08462
C          1.36615       14.91434       14.03827
H          1.18604       15.66135       13.27761
C          0.68653       13.71071       14.00260
H         -0.03089       13.52696       13.21374
C          0.27458        9.88263       16.25048
C          0.13574       10.26563       17.58013
H         -0.16281       11.27879       17.81306
C          0.38155        9.37136       18.60747
H          0.27260        9.68661       19.63594
C          0.77156        8.07438       18.31864
H          0.96956        7.37828       19.12111
C          0.90695        7.67382       16.99934
H          1.20982        6.66295       16.76752
C          0.65720        8.57075       15.97769
H          0.76801        8.26708       14.94263
C         -1.83437       11.36083       14.43950
C         -2.77477       11.44378       15.46105
H         -2.45299       11.31741       16.48441
C         -4.11163       11.67189       15.18576
H         -4.82767       11.72967       15.99337
C         -4.53496       11.81974       13.87532
H         -5.57918       11.99292       13.65828
C         -3.61367       11.73957       12.84463
H         -3.93761       11.85038       11.81905
C         -2.27943       11.51492       13.12974
H         -1.56297       11.44597       12.32152
C          1.27725        5.32550       12.25624
C          2.10526        5.57886       13.34787
H          2.14157        6.58138       13.75109
C          2.88567        4.57930       13.89993
H          3.52941        4.80100       14.73947
C          2.84478        3.29890       13.37195
H          3.45228        2.51417       13.80024
C          2.02669        3.02929       12.28693
H          1.99644        2.03284       11.86862
C          1.25356        4.03588       11.73509
H          0.62733        3.82210       10.88032
C         -1.46156        6.76563       12.42913
C         -1.85806        7.91319       13.11143
H         -1.19670        8.77194       13.12196
C         -3.06536        7.96549       13.78443
H         -3.35136        8.86527       14.30949
C         -3.90294        6.86277       13.78365
H         -4.84895        6.89975       14.30464
C         -3.51946        5.70790       13.12152
H         -4.16596        4.84151       13.12913
C         -2.30770        5.66178       12.45638
H         -2.00537        4.75119       11.95932
C          0.08011        6.56777        9.65539
C         -0.89960        5.81145        9.02139
H         -1.64602        5.30559        9.61646
C         -0.93894        5.70509        7.64207
H         -1.70880        5.11269        7.16735
C          0.00814        6.35583        6.86906
H         -0.01926        6.27007        5.79203
C          0.99012        7.11679        7.48211
H          1.73331        7.62809        6.88633
C          1.02083        7.22032        8.86084
H          1.78798        7.81650        9.34095
C          3.92617       10.07981        7.96050
C          2.60708       10.23858        7.54942
H          1.81345       10.04910        8.25735
C          2.29442       10.61898        6.25667
H          1.25994       10.73221        5.96295
C          3.30699       10.84702        5.34072
H          3.06969       11.14379        4.32909
C          4.62757       10.68776        5.72784
H          5.42232       10.86026        5.01579
C          4.92907       10.30789        7.02327
H          5.96171       10.18700        7.31675
C          5.54516       10.82317       10.52240
C          5.92355       12.00854        9.90202
H          5.55860       12.22619        8.90766
C          6.76218       12.91100       10.53334
H          7.05080       13.82323       10.02973
C          7.23492       12.64443       11.80670
H          7.89382       13.34591       12.29839
C          6.86004       11.47377       12.44478
H          7.22169       11.25848       13.44014
C          6.02372       10.57572       11.80667
H          5.73644        9.66122       12.30511
C          5.01129        7.79571        9.82412
C          6.15210        7.37539        9.14824
H          6.69938        8.08186        8.54095
C          6.59665        6.06890        9.24462
H          7.48602        5.76001        8.71340
C          5.90220        5.15604       10.02114
H          6.24738        4.13469       10.09524
C          4.76524        5.55684       10.70320
H          4.21917        4.85156       11.31232
C          4.32788        6.86564       10.60518
H          3.44348        7.18583       11.14754
