137
CSD_code = LELXUX | q = 0 | S = 0 | Stoichiometry = C38H78ClO12Si7Ta | MND = 9
C         -2.80630       15.95215        6.98770
C         -2.02998       14.84620        6.87044
C         -2.65436       13.72818        7.63995
C         -3.82419       14.37684        8.29952
C         -3.91769       15.66136        7.87913
C         -2.61824       17.28746        6.34725
H         -3.53891       17.59798        5.85719
H         -1.82258       17.25639        5.60926
H         -2.36529       18.03848        7.09591
C         -0.72609       14.68316        6.15175
H          0.10751       14.82305        6.84281
H         -0.63153       15.41424        5.35317
H         -0.66031       13.68615        5.71636
C         -1.72655       12.94874        8.57151
H         -1.31837       13.61984        9.32855
H         -0.90966       12.50631        8.00639
H         -2.27645       12.14921        9.06573
C         -4.71561       13.63516        9.24658
H         -4.34327       13.71583       10.26905
H         -4.75325       12.58139        8.96988
H         -5.72461       14.03655        9.21457
C         -4.97466       16.66103        8.21041
H         -5.57644       16.32468        9.04858
H         -5.62829       16.80111        7.35016
H         -4.52957       17.62192        8.46087
C         -4.45979       13.22703        1.76512
H         -4.60152       12.50662        0.95875
H         -5.44417       13.43232        2.18805
C         -3.90898       14.53074        1.17653
H         -3.70128       15.21201        2.00629
C         -2.61088       14.27815        0.41783
H         -2.79088       13.61534       -0.42583
H         -1.88257       13.80939        1.07092
H         -2.20060       15.21257        0.04114
C         -4.94397       15.17636        0.25554
H         -4.55787       16.10418       -0.16015
H         -5.85802       15.39984        0.79997
H         -5.18736       14.50752       -0.56736
C         -0.01421       10.26730        1.19094
H         -0.50464       10.00642        0.25332
H          0.43609       11.24848        1.04111
C          1.10040        9.25163        1.46071
H          1.57134        9.50768        2.41305
C          2.15732        9.31497        0.35832
H          2.96074        8.60919        0.55725
H          2.58621       10.31188        0.29213
H          1.71493        9.06804       -0.60440
C          0.53800        7.83853        1.57141
H         -0.18388        7.78345        2.37972
H          1.33551        7.12377        1.76371
H          0.03770        7.55967        0.64659
C          0.95390       10.83299        6.33159
H          1.06096       11.91408        6.43143
H          1.01348       10.41918        7.33915
C          2.14349       10.30838        5.51842
H          2.05861       10.70257        4.50187
C          3.45832       10.79742        6.12538
H          3.56368       10.43109        7.14428
H          3.49450       11.88396        6.14614
H          4.30410       10.43827        5.54338
C          2.12563        8.78562        5.44900
H          2.95770        8.41964        4.85087
H          1.19681        8.44484        5.00437
H          2.20659        8.36265        6.44779
C         -1.99910        6.36950        6.89775
H         -2.14746        6.44387        7.97504
H         -2.65586        5.57054        6.55266
C         -0.54536        5.96278        6.63241
H          0.09677        6.79642        6.92742
C         -0.31718        5.68060        5.15110
H          0.72779        5.44274        4.96391
H         -0.59130        6.54619        4.55697
H         -0.92532        4.83742        4.83014
C         -0.17290        4.73623        7.46488
H         -0.81071        3.89437        7.20417
H         -0.29143        4.93959        8.52628
H          0.86115        4.45139        7.28396
C         -3.55373        6.57501        2.02967
H         -4.30006        6.70384        1.24586
H         -2.60193        6.40203        1.52796
C         -3.91007        5.32591        2.84420
H         -3.16649        5.21737        3.63805
C         -5.28423        5.47020        3.48982
H         -6.04680        5.61212        2.72740
H         -5.29796        6.33024        4.15199
H         -5.53198        4.58133        4.06635
C         -3.86674        4.08265        1.95663
H         -4.09911        3.19120        2.53494
H         -2.88021        3.95779        1.51678
H         -4.59333        4.16680        1.15145
C         -6.24117        9.34945        8.21832
H         -5.79232        8.89564        9.10163
H         -6.70606       10.28001        8.54556
C         -7.33565        8.41609        7.68629
H         -7.75584        8.86591        6.78335
C         -8.44845        8.26276        8.72251
H         -9.23541        7.61441        8.34415
H         -8.88609        9.22830        8.96318
H         -8.05527        7.82633        9.63807
C         -6.76118        7.05197        7.31975
H         -6.32463        6.57939        8.19665
H         -5.98369        7.16128        6.57089
H         -7.54075        6.40292        6.92666
C         -6.98949       10.84093        3.18146
H         -7.04990       11.91477        3.36833
H         -6.98435       10.70406        2.09944
C         -8.25491       10.18915        3.75562
H         -8.24608       10.34038        4.83816
C         -9.50115       10.85876        3.17897
H         -9.53049       10.73973        2.09790
H         -9.50692       11.92093        3.40969
H        -10.40070       10.41284        3.59683
C         -8.27317        8.69117        3.47316
H         -9.16172        8.23232        3.90126
H         -7.39355        8.22013        3.89998
H         -8.27227        8.50979        2.40077
O         -3.05824       13.41850        4.35770
O         -1.83970       11.55058        5.83604
O         -4.11111       11.12181        7.21113
O         -5.65002        9.91481        5.50659
O         -4.12661       11.19692        3.85947
O         -3.83134        8.52181        6.87470
O         -4.90052        8.81178        3.20045
O         -2.85700        7.74151        4.53182
O         -2.40739        9.19484        2.35664
O         -1.27805        9.03729        6.24163
O         -0.54060       10.19624        3.97922
O         -2.01616       11.82574        2.46764
Si        -3.35755       12.48297        3.11269
Si        -0.74342       10.42942        5.57959
Si        -4.89174        9.74790        6.94969
Si        -5.38384       10.17662        3.93418
Si        -2.50966        8.00516        6.09377
Si        -3.41824        8.14655        3.07046
Si        -1.30373       10.37040        2.56738
Cl        -5.51612       13.29968        5.88429
Ta        -3.47133       12.35563        5.97170
