61
CSD_code = LEVBET | q = 0 | S = 0 | Stoichiometry = C25H29NO4SiW | MND = 6
W          1.10796        2.21505        0.50171
Si        -0.78347        0.36729        1.37694
O          3.74914        3.72890        1.11478
O          1.51441        3.32448       -2.39936
O          2.92225       -0.17499       -0.41366
O         -0.16262        4.96948        1.26607
N          0.37843        1.71751        3.64198
C          2.77552        3.15626        0.89547
C          1.35517        2.89713       -1.34722
C          2.19587        0.62583       -0.04154
C          0.20467        3.92023        0.98391
C          0.41463        1.43221        2.38288
C         -0.55228        1.19097        4.62304
C          1.34030        2.63965        4.21822
C         -2.60294        0.26674        1.93479
C         -3.41795        1.40265        1.83101
C         -4.75741        1.33333        2.17830
C         -5.32831        0.15750        2.64307
C         -4.51092       -0.95228        2.77665
C         -3.16574       -0.91454        2.43653
C         -2.87109        2.71650        1.36452
C         -6.78366        0.10309        2.98984
C         -2.35772       -2.16291        2.63313
C         -0.03823       -1.28426        0.82072
C          1.01153       -1.90694        1.50119
C          1.56656       -3.07253        0.99776
C          1.10760       -3.64722       -0.17811
C          0.06236       -3.02772       -0.84366
C         -0.51197       -1.86104       -0.36170
C          1.56791       -1.33766        2.77219
C          1.74375       -4.89071       -0.71766
C         -1.62962       -1.23227       -1.13916
H         -0.60138        1.30605        0.07630
H         -1.31178        0.58086        4.14006
H         -0.01795        0.59028        5.36315
H         -1.04265        2.01582        5.14371
H          2.05097        2.93897        3.44795
H          0.82963        3.52638        4.59839
H          1.87068        2.16066        5.04339
H         -3.61354        3.50221        1.48301
H         -1.98735        2.99245        1.93805
H         -2.59061        2.67482        0.31237
H         -7.02741       -0.81997        3.50980
H         -7.05947        0.94670        3.62026
H         -7.38536        0.15616        2.08247
H         -1.40928       -1.95363        3.12202
H         -2.90798       -2.87521        3.24397
H         -2.13776       -2.63643        1.67761
H          2.34395       -1.98600        3.17253
H          2.00628       -0.35514        2.58674
H          0.79053       -1.22909        3.52781
H          1.09215       -5.38289       -1.43571
H          2.67726       -4.63842       -1.22129
H          1.97572       -5.58673        0.08620
H         -2.45917       -0.95089       -0.49238
H         -1.27579       -0.33390       -1.64640
H         -2.00155       -1.91945       -1.89599
H         -5.37376        2.21685        2.08712
H         -4.92958       -1.87379        3.15699
H          2.38183       -3.54364        1.52920
H         -0.31086       -3.46008       -1.76199
