89
CSD_code = LEXFEA | q = 0 | S = 0 | Stoichiometry = C27H56NOSi3Y | MND = 4
Y         -3.71406        8.01894        4.02687
Si        -4.78962        5.96798        6.91040
Si        -4.63872        5.43666        1.69994
Si        -4.61645       11.30063        3.23667
N         -3.38369       10.26339        3.80997
O         -1.08935        7.24670        4.35465
C         -5.14698        7.50357        5.87752
H         -5.13905        8.37614        6.54255
H         -6.18031        7.43122        5.51249
C         -2.89635        5.63978        6.97814
H         -2.45589        5.67011        5.98188
H         -2.68051        4.66407        7.40311
H         -2.38904        6.37817        7.59289
C         -5.36662        6.08999        8.73565
H         -4.89386        6.92644        9.24160
H         -5.12678        5.19158        9.29631
H         -6.44025        6.23713        8.79666
C         -5.62076        4.42050        6.15335
H         -6.70192        4.50352        6.19600
H         -5.34204        3.51867        6.68964
H         -5.34392        4.28621        5.11321
C         -3.87343        7.15135        1.80855
H         -4.48571        7.85280        1.22609
H         -2.88565        7.14891        1.33334
C         -3.57549        4.22310        2.74232
H         -2.64824        3.97686        2.23315
H         -4.09974        3.28921        2.91794
H         -3.32297        4.64897        3.71267
C         -6.40660        5.52111        2.43122
H         -6.40975        6.00838        3.40484
H         -6.83874        4.53307        2.55382
H         -7.06646        6.08368        1.77778
C         -4.77579        4.66897       -0.05273
H         -5.39132        5.28457       -0.70117
H         -5.21955        3.67836       -0.02424
H         -3.80050        4.57698       -0.52118
C         -2.10250       10.69185        4.14994
C         -1.07993       10.79925        3.18281
C          0.19028       11.20088        3.56319
H          0.96780       11.28625        2.81669
C          0.48501       11.50524        4.87938
H          1.47983       11.81956        5.15934
C         -0.51132       11.40474        5.83345
H         -0.28042       11.64146        6.86219
C         -1.79576       11.01156        5.49270
C         -1.35820       10.46366        1.73672
H         -2.41655       10.19935        1.65505
C         -1.08713       11.66590        0.83108
H         -1.63138       12.53665        1.18927
H         -1.40429       11.45058       -0.18746
H         -0.02735       11.91118        0.81303
C         -0.53454        9.25286        1.29026
H         -0.78890        8.98070        0.26742
H         -0.74662        8.40610        1.94086
H          0.53175        9.46916        1.32983
C         -2.85494       10.88486        6.56412
H         -3.81445       10.71808        6.06053
C         -2.97471       12.15451        7.40799
H         -3.83354       12.08204        8.07255
H         -3.10445       13.02253        6.76699
H         -2.08813       12.30872        8.01868
C         -2.55714        9.67391        7.45618
H         -2.53395        8.75825        6.85803
H         -3.32463        9.56719        8.22067
H         -1.59460        9.79200        7.95202
C         -6.26296       10.48012        3.78704
H         -6.37214        9.48812        3.34126
H         -7.11048       11.07486        3.46275
H         -6.33351       10.37721        4.86672
C         -4.79475       11.47830        1.32758
H         -4.00818       12.08590        0.89317
H         -5.74156       11.94813        1.07812
H         -4.77581       10.51011        0.83318
C         -4.47889       13.07549        3.93638
H         -4.86111       13.13875        4.94958
H         -5.02746       13.78892        3.33080
H         -3.43909       13.38696        3.95660
C         -0.09797        7.80411        5.21697
H         -0.01821        7.18626        6.12287
H         -0.40277        8.81646        5.47998
C          1.20297        7.75931        4.41277
H          2.07106        7.66713        5.06064
H          1.29861        8.67202        3.82749
C          1.01320        6.53729        3.49932
H          1.18578        6.79754        2.45700
H          1.68488        5.72293        3.76363
C         -0.45172        6.13029        3.73292
H         -0.99550        5.90113        2.81519
H         -0.50334        5.26325        4.40650
