45
CSD_code = LEXJAA | q = 0 | S = 0 | Stoichiometry = C16H22Cl3N2SiTa | MND = 7
Ta         4.47304        1.64416       -3.46200
Cl         4.18717        3.83463       -4.20246
Cl         6.46451        1.50266       -4.72329
Cl         5.05986       -0.16274       -2.15076
Si         0.70778        1.10645       -4.35931
N          6.11273        2.80561       -1.89683
N          2.96549        2.12427       -1.79667
C         -0.05378       -0.14637       -3.13122
C          0.23897        2.89280       -3.86966
C          0.07971        0.72526       -6.12410
C          2.57646        0.96210       -4.36792
C          3.51786        0.54775       -5.12894
C          3.88406       -0.16466       -6.36375
C          6.96080        3.69334       -2.40139
C          7.96758        4.27779       -1.65021
C          8.09714        3.92142       -0.31789
C          7.20761        2.99704        0.20902
C          6.23385        2.46590       -0.61871
C          2.66759        3.38306       -1.45985
C          1.88365        3.71480       -0.37244
C          1.36737        2.70225        0.42440
C          1.66815        1.39243        0.07671
C          2.45737        1.15312       -1.03082
H          0.07414        0.17524       -2.10235
H         -1.11831       -0.26061       -3.31134
H          0.40240       -1.12647       -3.22957
H          0.15347        3.00162       -2.79258
H          0.99694        3.59238       -4.20962
H         -0.70886        3.19266       -4.30600
H         -0.99677        0.85252       -6.18787
H          0.53419        1.38625       -6.85529
H          0.30654       -0.29597       -6.41323
H          4.20770       -1.17626       -6.11612
H          3.03791       -0.21516       -7.04826
H          4.71923        0.34372       -6.84505
H          6.82700        3.93845       -3.44598
H          8.63623        4.99035       -2.10601
H          8.87486        4.35031        0.29633
H          7.27053        2.68594        1.23981
H          5.52953        1.72961       -0.25360
H          3.07352        4.14597       -2.10771
H          1.67922        4.75160       -0.15681
H          0.74999        2.92473        1.28074
H          1.29098        0.56332        0.65448
H          2.70519        0.14607       -1.33042
