36
CSD_code = LEXMIL | q = 0 | S = 0 | Stoichiometry = C16H18SiZr | MND = 14
Zr         2.74108        5.29969        2.80340
Si         2.65729        6.08896       -0.39229
C          2.35716        3.18849        3.80635
H          1.34675        2.76324        3.88111
H          3.09658        2.37735        3.74494
C          2.65069        4.17543        4.79212
C          2.93850        5.35420        5.08109
C          3.19676        6.69261        4.66358
H          4.21430        7.04490        4.88226
H          2.46480        7.42798        5.02678
C          1.34634        6.07782        0.96993
C          1.23562        7.06576        1.98763
H          1.54430        8.10305        1.89250
C          0.47193        6.53036        3.04675
H          0.09697        7.07702        3.90340
C          0.15115        5.19950        2.72573
H         -0.51015        4.55821        3.29543
C          0.71420        4.90380        1.46597
H          0.55234        3.99112        0.89949
C          4.03683        5.48842        0.75282
C          4.70294        6.30454        1.70886
H          4.84577        7.37843        1.62830
C          5.32421        5.46362        2.65670
H          6.01836        5.77400        3.42805
C          5.00725        4.13208        2.33463
H          5.41801        3.25408        2.81788
C          4.18824        4.14154        1.18551
H          3.86625        3.26423        0.63174
C          2.27330        4.84962       -1.79161
H          3.08621        4.81639       -2.50857
H          1.37386        5.13779       -2.32461
H          2.12561        3.84395       -1.41142
C          2.97634        7.83283       -1.09754
H          3.79065        7.81438       -1.81352
H          3.23475        8.54352       -0.31954
H          2.09553        8.20629       -1.60846
