61
CSD_code = LIHCIP | q = 0 | S = 0 | Stoichiometry = C25H33NSiTi | MND = 8
Ti         6.19533        4.49510        1.68083
Si         7.96701        2.86378        0.09106
N          8.01085        3.94976        1.44828
C          6.09434        3.03529       -0.08070
C          5.48276        4.23763       -0.51148
H          5.87532        4.89820       -1.27950
C          4.23800        4.39058        0.14117
C          4.06881        3.26769        1.01023
C          5.23134        2.47130        0.88710
H          5.36351        1.49015        1.33037
C          8.87018        3.40687       -1.51307
H          8.63242        4.43256       -1.78024
H          8.58737        2.77295       -2.34711
H          9.94732        3.33372       -1.40275
C          8.45167        1.04631        0.47132
H          9.52437        0.89849        0.41348
H          7.99072        0.36888       -0.24015
H          8.12975        0.75144        1.46619
C          9.22039        4.49111        2.04024
C          8.94930        4.91663        3.49301
H          8.20929        5.71801        3.51863
H          9.86806        5.27027        3.95746
H          8.57550        4.06391        4.06029
C          9.68957        5.71768        1.23636
H          9.97142        5.41494        0.23140
H         10.54748        6.18449        1.71526
H          8.87916        6.44290        1.16806
C         10.34739        3.44729        2.05856
H         10.01376        2.55403        2.58002
H         11.22254        3.84634        2.56612
H         10.62973        3.17451        1.04620
C          3.32309        5.51474       -0.04624
C          3.14659        6.08987       -1.30579
H          3.66817        5.67399       -2.15640
C          2.30014        7.16923       -1.47732
H          2.17307        7.60004       -2.46034
C          1.61300        7.69661       -0.39711
H          0.95127        8.53930       -0.53255
C          1.78014        7.13658        0.86015
H          1.24967        7.54678        1.70762
C          2.62674        6.06035        1.03737
H          2.76069        5.63311        2.02467
C          2.85251        2.84768        1.70513
C          2.92593        2.08536        2.87418
H          3.89399        1.83731        3.28943
C          1.77952        1.65441        3.51358
H          1.85824        1.07269        4.42124
C          0.53225        1.96562        2.99810
H         -0.36341        1.63184        3.50104
C          0.44412        2.69911        1.82637
H         -0.52424        2.93102        1.40648
C          1.58782        3.13076        1.18324
H          1.50503        3.68339        0.25917
C          6.11648        6.56509        1.62328
H          6.75323        7.10322        2.33919
H          6.38763        6.92385        0.61769
H          5.08683        6.90272        1.81332
C          5.65897        4.23200        3.66168
H          5.99399        3.24583        4.02147
H          6.04753        4.97970        4.36625
H          4.56376        4.25896        3.75718
