67
CSD_code = LINFIZ | q = 0 | S = 0 | Stoichiometry = C28H35N2SiY | MND = 13
Y         12.80312        4.46889        2.99285
N         15.41506        4.56150        4.32871
N         13.47774        2.11852        2.05985
Si        10.25631        6.36828        1.28945
C         12.14205        6.50444        1.28544
C         13.08310        5.75193        0.51809
C         12.99314        5.14732       -0.74442
H         12.05227        5.14815       -1.27544
C         14.11619        4.59957       -1.31859
H         14.05409        4.14820       -2.29919
C         15.35937        4.63370       -0.66507
H         16.22280        4.21006       -1.15947
C         15.49471        5.21262        0.57405
H         16.46458        5.26711        1.05114
C         14.19687        6.52526        2.40274
C         12.84553        6.95339        2.42930
H         12.44768        7.64921        3.16105
C         15.22934        6.95831        3.40527
H         14.71069        7.52831        4.18175
H         15.94370        7.64089        2.93020
C         16.30001        3.77654        5.17645
H         16.48484        4.25796        6.14936
H         17.26015        3.63882        4.67616
H         15.86464        2.79477        5.36232
C         14.01924        4.63895        4.85195
H         13.92145        5.54582        5.48280
H         13.90559        3.79786        5.55824
C          9.46678        6.06033       -0.41743
H          9.81396        6.79071       -1.14015
H          8.38770        6.14744       -0.35078
H          9.69142        5.07362       -0.80517
C          9.44400        7.92867        2.02521
H          9.35088        8.69817        1.26626
H         10.02033        8.34560        2.84319
H          8.44889        7.70768        2.39620
C         10.16779        4.83208        2.38384
C         10.35648        4.75779        3.80051
C         10.19677        5.69686        4.83610
H          9.89437        6.70922        4.60455
C         10.37363        5.30369        6.14134
H         10.24133        6.01977        6.94009
C         10.69564        3.97675        6.46986
H         10.79656        3.70543        7.51115
C         10.86379        3.02342        5.49581
H         11.07760        1.99535        5.76404
C         10.71938        3.38827        4.14402
C         10.78233        2.65096        2.92374
C         10.45893        3.54030        1.88618
H         10.32535        3.25553        0.85107
C         11.22222        1.22559        2.76499
H         10.87263        0.83530        1.80657
H         10.79124        0.59901        3.55077
C         12.75699        1.10239        2.85938
H         13.05433        1.23748        3.90571
H         13.06290        0.09268        2.54085
C         13.22957        1.87424        0.63189
H         13.50917        0.84733        0.35936
H         13.81878        2.56892        0.03340
H         12.17966        2.02303        0.39501
C         14.36791        5.77756        1.19599
C         16.06538        5.84680        4.07141
H         16.93036        5.62086        3.43674
H         16.45822        6.26897        5.01446
C         14.92102        1.94508        2.28048
H         15.46884        2.69664        1.71026
H         15.25031        0.94748        1.95697
H         15.15894        2.06632        3.33536
