69
CSD_code = LIPKOK | q = 0 | S = 0 | Stoichiometry = C15H45ClN3Si4Ta | MND = 5
Ta        11.64891        2.49407        2.19679
Cl        11.71589        0.24905        2.71132
Si        11.61413        2.22470       -0.51740
Si        11.08229       -0.09546       -0.89225
Si         9.95053        3.47849       -1.76744
Si        13.70829        2.81986       -1.59319
N         11.63621        4.45781        1.99109
N          9.69280        2.43541        2.60434
N         13.64247        2.50854        2.51415
C         12.62081        5.23755        1.27498
C         10.73193        5.36571        2.65511
C          9.17539        1.81763        3.80077
C          8.59794        2.96871        1.83176
C         14.23601        3.40863        3.47629
C         14.49593        1.34852        2.38445
C         12.52490       -1.26543       -0.42598
C         10.70278       -0.43272       -2.74188
C          9.51283       -0.61305        0.07469
C         10.43110        3.45073       -3.62488
C          8.17317        2.74557       -1.77885
C          9.75004        5.33551       -1.31575
C         15.35779        2.53827       -0.65751
C         13.87254        1.77665       -3.19420
C         13.80481        4.66317       -2.14266
H         13.41697        4.58348        0.93010
H         13.05473        6.02024        1.91154
H         12.16766        5.73283        0.40793
H          9.96904        4.80352        3.18624
H         10.24451        6.04496        1.94250
H         11.26856        5.99154        3.38363
H          9.99062        1.42493        4.40832
H          8.50000        0.98618        3.55301
H          8.60480        2.53574        4.40989
H          8.98983        3.59437        1.03250
H          7.91506        3.56869        2.45200
H          8.00620        2.15506        1.38960
H         13.60460        4.28588        3.60791
H         15.23478        3.73934        3.15889
H         14.35302        2.91305        4.45322
H         14.16791        0.73541        1.54619
H         14.45952        0.73627        3.29904
H         15.54191        1.63543        2.22489
H         13.44443       -0.98472       -0.93194
H         12.31242       -2.29951       -0.68470
H         12.70843       -1.22913        0.64246
H         11.55002       -0.18570       -3.37042
H          9.85817        0.15172       -3.08903
H         10.46580       -1.47838       -2.91359
H          9.62948       -0.37580        1.12713
H          9.31857       -1.68000        0.00077
H          8.63042       -0.09355       -0.28732
H         10.47882        2.43189       -3.99268
H         11.39657        3.90661       -3.80920
H          9.70181        3.97955       -4.23240
H          8.20107        1.67893       -1.97552
H          7.56666        3.19989       -2.55864
H          7.65240        2.89181       -0.83945
H         10.64512        5.89836       -1.56162
H          9.56310        5.46874       -0.25508
H          8.92280        5.79500       -1.85062
H         15.53058        1.48473       -0.46419
H         15.35485        3.05169        0.29794
H         16.20840        2.90936       -1.22457
H         13.90948        0.71579       -2.97040
H         14.77647        2.02355       -3.74377
H         13.03305        1.93954       -3.85972
H         12.83719        5.04454       -2.44836
H         14.48103        4.78702       -2.98429
H         14.16595        5.30054       -1.34193
