78
CSD_code = LIRBOE | q = 0 | S = 0 | Stoichiometry = C21H50N3OScSi2 | MND = 5
Sc         1.81324        1.66433        4.48830
Si         0.44658       -1.43965        5.89948
Si        -0.12158        2.43845        1.34406
O          3.45898        0.20136        3.27203
N          3.62443        3.33765        3.71869
N          3.94793        2.45808        6.33255
N          1.28409        3.46629        5.30087
C          3.60737        3.52812        2.26997
C          4.98175        2.96422        4.10326
C          5.17356        2.80956        5.61849
C          4.28664        1.64993        7.50191
C          3.25536        3.66975        6.77771
C          2.38500        4.33056        5.66926
C          1.96574        5.72322        6.18970
C          3.21773        4.57874        4.39021
C          0.13202        3.56790        6.17314
C          1.62596        0.01236        6.07062
C          0.52912       -2.72877        7.33145
C         -1.37190       -0.84570        5.83473
C          0.80180       -2.45840        4.30926
C          0.30639        1.30940        2.77746
C         -0.03489        4.27025        1.92556
C         -1.87663        2.20988        0.58507
C          1.04755        2.19144       -0.17005
C          3.31044       -0.30301        1.94903
C          4.73556       -0.63238        1.48739
C          5.44977       -0.99252        2.80143
C          4.39574       -0.67948        3.88002
H          2.59068        3.73580        1.94474
H          3.95640        2.61987        1.77918
H          4.26687        4.35659        1.96510
H          5.70760        3.71501        3.73753
H          5.20986        2.01754        3.60808
H          5.91912        2.02481        5.77837
H          5.59929        3.73850        6.03447
H          4.94661        2.19228        8.19689
H          4.78988        0.73467        7.18981
H          3.37657        1.37376        8.02967
H          3.97640        4.40006        7.18714
H          2.57047        3.39316        7.58262
H          1.26226        6.17798        5.49733
H          2.83714        6.37025        6.27488
H          1.49658        5.65021        7.16641
H          2.57050        5.13886        3.71198
H          4.09519        5.20350        4.61533
H          0.37012        3.45460        7.24661
H         -0.58076        2.78362        5.91018
H         -0.38868        4.53263        6.05833
H          2.62541       -0.40083        6.28606
H          1.32557        0.54862        6.98928
H          1.52333       -3.15815        7.42089
H         -0.16668       -3.54946        7.18288
H          0.28897       -2.26823        8.28538
H         -1.65119       -0.35010        6.75945
H         -2.06332       -1.66892        5.68260
H         -1.51737       -0.13522        5.02654
H          0.77518       -1.82007        3.43106
H          0.06514       -3.24345        4.16899
H          1.77724       -2.93576        4.34950
H          0.41037        0.28475        2.38651
H         -0.60909        1.27757        3.39898
H         -1.02123        4.72359        1.92766
H          0.59781        4.88928        1.29420
H          0.34456        4.30895        2.94643
H         -2.00280        1.21007        0.17912
H         -2.07553        2.91490       -0.21779
H         -2.64434        2.35091        1.34075
H          2.09269        2.37395        0.06041
H          0.77482        2.86038       -0.98075
H          0.96777        1.17748       -0.55095
H          2.80503        0.45255        1.34972
H          2.70121       -1.21555        1.97169
H          5.19754        0.23788        1.02142
H          4.74554       -1.44895        0.76986
H          5.74023       -2.04030        2.83394
H          6.34600       -0.38864        2.93896
H          3.88200       -1.59727        4.19213
H          4.80511       -0.18274        4.75925
