68
CSD_code = LOMXAN | q = 1 | S = 0 | Stoichiometry = C29H34ClNPRuSi(1+) | MND = 9
Ru         4.41755        5.07962        3.86336
Cl         3.73427        4.93701        6.09735
P          5.81002        3.28653        4.29049
Si         1.83368        2.72657        1.79931
N          5.83044        6.48715        4.69396
C          5.24151        7.83519        4.57286
C          4.77689        8.08973        3.12736
C          4.00135        6.87195        2.68950
C          2.78864        6.55317        3.33114
C          2.19081        5.29397        3.12412
C          2.77180        4.32545        2.28618
C          3.97482        4.68706        1.61640
C          4.56349        5.94962        1.77058
C          1.13279        3.13457        0.07502
C          3.07318        1.28514        1.71970
C          0.44588        2.41851        3.06347
C          6.51035        2.59609        2.76449
C          7.11515        3.49316        1.88519
C          7.67163        3.04624        0.70271
C          7.62243        1.69648        0.38594
C          7.02484        0.80105        1.25708
C          6.46933        1.24467        2.44601
C          5.06939        1.88189        5.16240
C          5.86479        0.91395        5.77155
C          5.26626       -0.15369        6.41522
C          3.88420       -0.25918        6.45528
C          3.09256        0.70465        5.85137
C          3.68395        1.77500        5.20577
C          7.27859        3.64711        5.31079
C          7.04277        4.05769        6.62451
C          8.10462        4.33069        7.46601
C          9.40671        4.20025        7.00555
C          9.64336        3.79139        5.70381
C          8.58556        3.51337        4.85367
H          5.97175        6.27561        5.68833
H          6.74937        6.46402        4.24323
H          4.38326        7.87269        5.25108
H          5.95946        8.60340        4.88151
H          4.15749        8.98785        3.10065
H          5.63913        8.24765        2.47487
H          2.29770        7.28662        3.96097
H          1.24201        5.08159        3.60311
H          4.40219        3.99185        0.90201
H          5.42396        6.23136        1.17342
H          0.48398        4.00614        0.09335
H          0.54489        2.30121       -0.29557
H          1.91875        3.32508       -0.65068
H          3.88643        1.48231        1.02669
H          2.57225        0.38452        1.37975
H          3.51176        1.06894        2.68963
H          0.77716        2.51551        4.09343
H          0.05285        1.41380        2.94503
H         -0.38515        3.10317        2.91720
H          7.15032        4.54399        2.15018
H          8.14507        3.74339        0.02755
H          8.05328        1.34525       -0.53883
H          6.99117       -0.24932        1.01161
H          6.00927        0.54208        3.12500
H          6.94195        1.00459        5.74338
H          5.87922       -0.90372        6.89133
H          3.42396       -1.09173        6.96467
H          2.01708        0.62329        5.89062
H          3.08454        2.55149        4.74364
H          6.02184        4.14245        6.97549
H          7.91829        4.63925        8.48331
H         10.23561        4.41032        7.66358
H         10.65620        3.67984        5.34771
H          8.77962        3.18138        3.84422
