56
CSD_code = LURKIT | q = 0 | S = 0 | Stoichiometry = C17H35OScSi2 | MND = 8
Sc         3.28861        0.45035       13.86759
Si         1.93087        1.88943       10.84593
Si         4.08172       -2.93960       14.61759
O          5.16237        1.97732       13.44921
C          2.60677        0.36606       11.73347
H          3.44571       -0.02469       11.13389
H          1.83220       -0.41651       11.67151
C          3.01834        3.42610       11.23396
H          3.17493        3.52519       12.30663
H          2.55490        4.34158       10.87876
H          3.99045        3.34711       10.75707
C          1.90070        1.72943        8.93201
H          2.88694        1.49940        8.53947
H          1.56529        2.64586        8.45552
H          1.23268        0.93381        8.61697
C          0.14172        2.30649       11.39112
H         -0.48023        1.41682       11.41296
H         -0.32201        3.01077       10.70698
H          0.11895        2.75062       12.38125
C          4.74876       -1.21257       14.23499
H          5.40017       -1.29967       13.35056
H          5.40778       -0.89342       15.06213
C          2.49847       -3.21029       13.56775
H          1.78635       -2.39925       13.72617
H          2.00110       -4.14330       13.81328
H          2.73543       -3.23548       12.50804
C          5.29561       -4.36425       14.18674
H          5.58699       -4.32673       13.14140
H          4.84860       -5.33721       14.36618
H          6.20257       -4.30674       14.78102
C          3.62654       -3.15251       16.46682
H          4.47529       -2.94310       17.11091
H          3.30366       -4.16805       16.67480
H          2.81998       -2.48686       16.75593
C          1.56730        0.16336       15.67400
H          1.00373       -0.73732       15.87339
C          2.75070        0.55657       16.33144
H          3.24474        0.01386       17.12603
C          3.05844        1.87136       15.92479
H          3.81221        2.50096       16.38021
C          2.07246        2.28829       15.00632
H          1.93423        3.29771       14.63651
C          1.14609        1.22854       14.85643
H          0.19802        1.28614       14.34027
C          6.20392        1.58598       12.55358
H          5.75301        0.96813       11.77583
H          6.94819        0.99421       13.10301
C          6.83845        2.87793       12.01063
H          7.92454        2.81380       12.03764
H          6.53428        3.06168       10.98240
C          6.30744        3.97191       12.94840
H          5.57247        4.59079       12.43661
H          7.09606        4.61400       13.33321
C          5.63314        3.17342       14.06570
H          6.35796        2.91951       14.85236
H          4.78190        3.68939       14.50815
