120
CSD_code = LUSBEH | q = 0 | S = 0 | Stoichiometry = C34H74IN4OSi5Y | MND = 4
I          3.39493        0.48549        2.17197
Y          5.27403        1.85454        3.83160
Si         6.07240        4.67994        1.92794
Si         2.82789        2.60726        5.93177
Si         8.64724       -4.23879        1.32200
Si         7.18012        4.35779        4.71281
Si         4.34890        0.10669        6.63260
O          6.64601        0.30173        3.45371
N          4.15786        1.53612        5.70183
N          6.28529        3.76415        3.36891
C          6.29257        5.72863        5.71518
H          6.25151        6.65467        5.15237
H          6.81054        5.93408        6.64738
H          5.27217        5.44820        5.95900
C          8.91444        5.04284        4.28054
H          9.50167        4.33672        3.70221
H          9.47547        5.28445        5.17757
H          8.82287        5.95185        3.69666
C          7.63103        4.80347        0.81335
H          8.48558        5.15540        1.37969
H          7.46262        5.50652        0.00362
H          7.90037        3.85107        0.36826
N          6.70394       -2.41685        2.43071
C          8.89674       -0.46107        3.19700
H          9.19706        0.34431        3.86296
H          9.68420       -0.62358        2.46813
H          8.76085       -1.36015        3.79499
N          6.75286       -4.30907        3.50523
C          5.50908        6.48431        2.22016
H          4.66049        6.53996        2.89407
H          5.22439        6.96542        1.28994
H          6.31491        7.06466        2.65721
C          4.09658       -7.05667        3.36671
H          4.12684       -8.08627        3.71402
H          3.25308       -6.94633        2.68990
H          3.93303       -6.41435        4.22916
C          1.11736        1.74720        6.01348
H          0.95709        1.09710        5.15887
H          0.30910        2.47125        6.03659
H          1.03979        1.13848        6.90796
C          7.64702       -4.33633       -0.29863
H          7.25022       -3.37245       -0.60250
H          6.80485       -5.01674       -0.20677
H          8.26972       -4.70118       -1.10988
C         10.37401       -4.28634        5.28086
H         10.84267       -5.07929        5.85749
H         10.78856       -3.33693        5.61150
H         10.62769       -4.42561        4.23224
C          2.99975        3.68940        7.50209
H          2.83066        3.09813        8.39437
H          2.27899        4.50076        7.50325
H          3.99075        4.12486        7.58196
C          2.77271        3.80153        4.42551
H          3.77462        4.12161        4.12415
H          2.21394        4.70111        4.66980
H          2.27535        3.34457        3.57135
C          9.28733       -5.97200        1.77829
H          9.98207       -6.30389        1.01148
H          8.49806       -6.71179        1.84230
H          9.81775       -5.99024        2.72439
C          7.33410       -3.55986        2.56576
C          6.96834       -7.92361        4.18641
H          6.48512       -8.84414        3.89944
C          5.62840       -7.63413        1.46507
H          6.55142       -7.38991        0.94392
H          4.80397       -7.54261        0.76190
H          5.68072       -8.66977        1.78935
C          7.84612        1.08504        1.51470
H          6.92556        1.34061        0.98810
H          8.60775        0.80869        0.78760
H          8.17719        1.96296        2.06816
C          5.40021       -6.69166        2.64885
H          5.30354       -5.67759        2.24950
C          6.17933       -0.48179        6.60669
H          6.63848       -0.33511        5.63266
H          6.25596       -1.53484        6.86467
H          6.76863        0.06862        7.33306
C          7.42590        2.87828        5.90932
H          6.48038        2.59416        6.37397
H          8.11644        3.12781        6.71122
H          7.83403        2.00966        5.39161
C          7.99777       -7.95573        5.10775
H          8.31463       -8.89847        5.52722
C          4.72599        3.82706        0.86103
H          5.01525        2.82123        0.56190
H          4.55888        4.39141       -0.05171
H          3.77010        3.76822        1.37715
C          5.54026       -2.33590        3.30534
H          4.63712       -2.32230        2.68853
H          5.58547       -1.40071        3.87348
C          3.91034        0.29108        8.48331
H          4.46963        1.09597        8.94726
H          4.12551       -0.62052        9.03120
H          2.85617        0.50952        8.60697
C          3.26520       -1.35918        5.99882
H          2.24363       -1.23239        6.34025
H          3.61393       -2.31895        6.37013
H          3.23393       -1.40967        4.91529
C          8.61234       -6.78433        5.50580
H          9.40094       -6.82270        6.24078
C          7.04061       -1.27612        1.64362
H          6.13143       -0.93362        1.14070
H          7.79684       -1.54492        0.90933
C          5.66038       -3.59158        4.16158
H          5.92864       -3.36828        5.19896
H          4.75258       -4.19672        4.16370
C          8.85672       -4.28180        5.47647
H          8.45537       -3.43644        4.91046
C          6.54769       -6.72239        3.63201
C          7.19362       -5.54845        4.03175
C          7.57188       -0.05717        2.51578
C          8.21878       -5.55951        4.98262
C          8.50871       -4.06709        6.95307
H          7.43184       -4.10173        7.10499
H          8.87100       -3.09712        7.28426
H          8.96298       -4.83538        7.57348
C         10.17588       -3.11218        1.19282
H         10.56286       -2.83052        2.16726
H          9.98065       -2.20066        0.63785
H         10.96947       -3.63842        0.67012
