41
CSD_code = LUTREX | q = 0 | S = 0 | Stoichiometry = C13H23O2PSiW | MND = 9
W          6.37504        6.28608        6.26483
C          4.85997        7.20711        7.08753
O          3.94055        7.74441        7.54270
C          7.48872        6.46019        7.85873
O          8.17520        6.57899        8.78321
P          6.97501        8.63820        6.24714
C          8.65021        9.05386        5.62389
H          8.75538        8.71858        4.59353
H          9.38000        8.53145        6.24157
H          8.82618       10.12833        5.67649
C          6.96410        9.54591        7.83318
H          5.98157        9.44415        8.29231
H          7.18633       10.60007        7.66355
H          7.70948        9.11460        8.49899
C          5.92119        9.75012        5.23267
H          5.89752        9.40389        4.20133
H          6.29278       10.77421        5.26303
H          4.90941        9.71631        5.63429
C          7.21447        4.47331        5.08413
H          7.74393        3.61192        5.46439
C          7.80027        5.63876        4.55281
H          8.86165        5.83018        4.45290
C          6.76158        6.41062        3.95741
H          6.90959        7.29255        3.34468
C          5.54460        5.71905        4.11424
H          4.59406        6.00034        3.68117
C          5.81368        4.53249        4.82509
H          5.10996        3.72900        4.99475
C          5.29611        4.94665        7.83026
H          5.20913        5.43484        8.80464
H          4.27116        4.79726        7.47577
Si         6.07163        3.24309        8.12807
H          5.91746        2.34569        6.95551
C          5.14036        2.39895        9.56318
H          5.53017        1.40345        9.74895
H          4.08160        2.30158        9.34669
H          5.23557        2.96608       10.48375
C          7.91631        3.31576        8.59691
H          8.33173        2.31770        8.70395
H          8.05661        3.83162        9.54165
H          8.50504        3.84307        7.85253
