79
CSD_code = LUYXEJ | q = 0 | S = 0 | Stoichiometry = C30H42CrN4Si2 | MND = 4
Cr        -1.29589        0.45430        4.98749
Si        -0.88611        1.67925        7.83805
N          0.01463       -0.87575        4.58252
N         -0.28203        0.56097        6.68199
C          0.10775       -1.61295        3.48216
H         -0.64133       -1.42676        2.72525
C          1.10294       -2.57089        3.29269
H          1.12356       -3.13033        2.36982
C          2.03661       -2.79653        4.27502
H          2.81372       -3.53566        4.15473
C          1.96006       -2.04793        5.47191
C          2.83535       -2.19819        6.56101
H          3.63647       -2.91844        6.49612
C          2.65989       -1.43858        7.69677
H          3.33271       -1.57104        8.53239
C          1.63682       -0.50443        7.80284
H          1.51279        0.06866        8.70770
C          0.75305       -0.30114        6.74378
C          0.92074       -1.09337        5.57056
C         -2.56921        2.05319        6.98695
H         -3.33440        1.35930        7.32321
H         -2.46299        1.93846        5.89519
H         -2.93455        3.05662        7.17694
C         -1.20971        1.00016        9.59761
H         -1.55542       -0.02785        9.55804
H         -1.96927        1.58413       10.10721
H         -0.31471        1.01959       10.21031
C          0.15267        3.31412        7.92771
C          0.27577        3.91989        6.52803
H          0.85907        4.84068        6.55992
H         -0.70465        4.15438        6.11820
H          0.77852        3.22350        5.85807
C          1.56081        3.03888        8.45553
H          2.14182        3.96082        8.49211
H          2.08144        2.33273        7.81288
H          1.52453        2.62644        9.46129
C         -0.52530        4.32855        8.84939
H          0.05339        5.25142        8.89071
H         -0.60797        3.93616        9.85981
H         -1.52413        4.57219        8.49525
Si        -1.70568        1.67924        2.13694
N         -2.60642       -0.87574        5.39246
N         -2.30976        0.56096        3.29300
C         -2.69954       -1.61294        6.49283
H         -1.95045       -1.42676        7.24973
C         -3.69472       -2.57089        6.68230
H         -3.71535       -3.13033        7.60517
C         -4.62840       -2.79653        5.69997
H         -5.40552       -3.53565        5.82027
C         -4.55184       -2.04793        4.50308
C         -5.42714       -2.19819        3.41398
H         -6.22825       -2.91844        3.47887
C         -5.25168       -1.43858        2.27821
H         -5.92450       -1.57104        1.44259
C         -4.22861       -0.50443        2.17215
H         -4.10458        0.06866        1.26728
C         -3.34484       -0.30114        3.23121
C         -3.51253       -1.09337        4.40443
C         -0.02257        2.05319        2.98803
H          0.74261        1.35929        2.65177
H         -0.12879        1.93846        4.07979
H          0.34277        3.05661        2.79804
C         -1.38209        1.00016        0.37737
H         -1.03637       -0.02785        0.41695
H         -0.62254        1.58413       -0.13223
H         -2.27709        1.01959       -0.23532
C         -2.74446        3.31411        2.04728
C         -2.86755        3.91989        3.44696
H         -3.45085        4.84068        3.41507
H         -1.88713        4.15438        3.85679
H         -3.37031        3.22351        4.11693
C         -4.15260        3.03888        1.51947
H         -4.73361        3.96082        1.48289
H         -4.67323        2.33273        2.16212
H         -4.11633        2.62644        0.51371
C         -2.06650        4.32854        1.12559
H         -2.64519        5.25142        1.08428
H         -1.98383        3.93616        0.11517
H         -1.06766        4.57219        1.47973
