65
CSD_code = MACVET | q = 0 | S = 0 | Stoichiometry = C30H30Cl2Si2Ti | MND = 12
Ti         1.12431       18.99320        2.98418
Cl        -0.87290       18.03177        2.63186
Cl         0.03289       20.70324        3.94474
Si         2.42299       22.40869        2.24458
Si         0.95211       15.30558        3.49550
C          3.95249       12.35862        5.05088
C          5.61665       23.82049       -0.56889
C          5.13199       12.79050        5.65916
H          5.32591       13.84985        5.74371
C          4.60446       10.07589        5.43399
H          4.40167        9.01817        5.34851
C          6.03497       11.86636        6.14800
H          6.94679       12.20398        6.61900
C          7.56683       24.73690       -2.32127
H          8.32501       25.09302       -3.00299
C         -0.71800       14.89707        4.30877
H         -1.05550       13.91020        4.00909
H         -1.47952       15.61439        4.01996
H         -0.63913       14.90163        5.39186
C          5.48662       25.07215       -1.17273
H          4.62034       25.67811       -0.95121
C          3.69468       10.99135        4.94141
H          2.77983       10.66165        4.47112
C          5.77463       10.50948        6.03729
H          6.48294        9.79033        6.42141
C          7.70061       23.49358       -1.72359
H          8.56401       22.88123       -1.94012
C          6.45939       25.52294       -2.04370
H          6.35521       26.49195       -2.50988
C          2.27577       18.50001        0.92729
H          2.74209       17.57241        0.62251
C          0.80806       20.23797        1.03401
H         -0.06268       20.85917        0.85893
C          2.91465       19.57964        1.57692
H          3.96380       19.62474        1.83920
C          2.84227       17.55988        3.70420
H          3.59434       17.08189        3.08972
C          0.98156       18.92107        0.56755
H          0.27032       18.35891       -0.02456
C          3.02024       13.30025        4.55515
C          1.01000       17.84722        5.01817
H          0.08188       17.65802        5.54492
C          3.02049       18.74995        4.44470
H          3.92051       19.34945        4.48304
C          2.01082       20.66254        1.66130
C          1.59169       16.99460        4.04089
C          3.15268       22.40150        4.00829
H          4.09143       21.85535        4.04727
H          2.46112       21.94940        4.71439
H          3.35531       23.41471        4.34026
C          2.22620       14.10865        4.13146
C          1.89693       18.90898        5.27809
H          1.76823       19.67259        6.03501
C          3.76349       22.96372        1.08015
C          0.93453       23.57773        2.05901
H          1.20053       24.58427        2.36527
H          0.10093       23.24980        2.67178
H          0.59944       23.62636        1.02716
C          4.61905       23.35706        0.32077
C          0.91395       15.14924        1.59360
H          1.91107       15.22606        1.16834
H          0.28985       15.92109        1.15113
H          0.51177       14.18487        1.30011
C          6.73344       23.03286       -0.85132
H          6.83055       22.06432       -0.38285
