50
CSD_code = MAFXOJ | q = 0 | S = 0 | Stoichiometry = C15H22F3O6PSi2W | MND = 6
C          1.99450       11.23262       10.78924
H          2.28376       12.00497       10.06741
C          3.09141       10.65207       11.67803
H          3.97449       11.28458       11.71427
H          3.36796        9.62325       11.45463
C          1.27426       10.12712       10.02733
C          2.65820       12.23902       14.11727
H          2.11576       12.13486       15.06318
C          4.77618        9.89093       14.28990
H          5.44075        9.70762       13.45082
H          3.84671        9.35631       14.10031
H          5.23310        9.43747       15.16443
C          4.68704       12.16404       16.41962
H          4.03560       11.55434       17.03841
H          4.46442       13.20450       16.63135
H          5.70755       11.97599       16.73699
C          5.74977       12.74034       13.54852
H          5.55071       13.80596       13.56903
H          5.79361       12.43285       12.50791
H          6.73949       12.58576       13.96602
C          0.31387       14.18568       13.57601
H         -0.05944       14.16981       14.59627
H         -0.15850       13.36815       13.03869
H         -0.01638       15.11597       13.12329
C          2.95337       15.21620       14.81637
H          4.03708       15.18805       14.83376
H          2.60183       14.99216       15.81781
H          2.65670       16.23428       14.58954
C          2.90895       14.45471       11.80708
H          2.18876       14.22018       11.03050
H          3.83204       13.93192       11.58000
H          3.11431       15.51880       11.74590
C         -0.70769        8.13443       15.28216
C          1.78757        9.31775       15.77421
C         -0.38525       10.92913       15.16070
C         -0.91874        9.50810       12.84215
C          1.36283        7.80223       13.38968
F          0.16431       10.54425        9.42098
F          2.06515        9.60007        9.07862
F          0.93105        9.11963       10.84540
O          1.14565       11.74979       11.79608
O         -1.39401        7.43860       15.87386
O          2.47494        9.35097       16.68965
O         -0.86879       11.81255       15.70230
O         -1.75827        9.63719       12.08501
O          1.88859        6.92114       12.89056
P          1.90176       10.95352       13.09409
Si         4.47013       11.75735       14.57199
Si         2.21003       14.01899       13.53041
W          0.47867        9.36643       14.27298
