140
CSD_code = MAKDAE | q = 0 | S = 0 | Stoichiometry = C42H91NbO3Si3 | MND = 4
Nb        23.91704       25.84473       27.04831
Si        24.82711       23.65321       24.49874
Si        20.42933       26.58403       26.64928
Si        24.76829       25.92460       30.41040
O         24.33499       24.85443       25.48078
O         21.87218       25.94069       26.94501
O         24.25561       26.20383       28.89543
C         24.81522       27.56615       26.42993
C         24.93097       28.80878       27.27962
H         24.23690       29.57925       26.91751
H         24.67494       28.58328       28.31836
C         26.34959       29.39642       27.21528
H         26.39926       30.29954       27.82787
H         27.05721       28.66968       27.61951
C         26.72740       29.71527       25.77471
H         27.74638       30.10637       25.73182
H         26.05671       30.48190       25.37996
C         26.61352       28.45315       24.93016
H         26.86998       28.66861       23.89045
H         27.31303       27.70333       25.30764
C         25.18631       27.88824       25.00371
H         25.11783       26.99297       24.38147
H         24.50203       28.64334       24.59552
C         26.79517       23.70994       24.54242
C         27.44052       22.37270       24.17156
H         28.52677       22.46611       24.18611
H         27.14295       22.05839       23.17561
H         27.16636       21.58871       24.87109
C         27.25639       24.10606       25.94826
H         28.32285       24.33393       25.94590
H         27.09186       23.30199       26.65695
H         26.71416       24.99686       26.28523
C         27.35937       24.77236       23.59425
H         28.44079       24.84174       23.72035
H         26.93203       25.74635       23.81240
H         27.17018       24.52415       22.55491
C         24.13658       23.89113       22.67910
C         24.30512       25.33412       22.19339
H         23.85989       25.44339       21.20401
H         25.34772       25.62110       22.12072
H         23.80113       26.01821       22.86841
C         24.83235       22.96146       21.68193
H         24.36635       23.05818       20.70111
H         24.75684       21.92283       21.98930
H         25.88370       23.20851       21.57312
C         22.63665       23.59055       22.62072
H         22.24033       23.86081       21.64147
H         22.10591       24.16770       23.37076
H         22.43598       22.53446       22.77399
C         24.07583       22.05601       25.37127
C         24.14539       20.78040       24.53104
H         23.74639       19.93816       25.09749
H         25.16988       20.54672       24.25524
H         23.55986       20.87321       23.62116
C         22.61255       22.32667       25.74183
H         22.24866       21.56200       26.42984
H         21.96868       22.31543       24.86965
H         22.51575       23.30122       26.22824
C         24.79853       21.79346       26.69422
H         24.31682       20.97534       27.23230
H         24.74994       22.68577       27.31803
H         25.83877       21.52026       26.54468
C         20.64861       27.71948       25.06330
C         21.44823       28.97338       25.42645
H         21.71311       29.52407       24.52202
H         22.36217       28.68028       25.94122
H         20.87611       29.64453       26.05960
C         21.49540       26.96815       24.03215
H         21.82106       27.64763       23.24291
H         20.93379       26.16802       23.56334
H         22.37819       26.54521       24.51958
C         19.34018       28.15560       24.40341
H         19.54800       28.80930       23.55537
H         18.70885       28.69764       25.10149
H         18.78161       27.30052       24.03316
C         19.20225       25.08260       26.35444
C         17.73422       25.50477       26.41244
H         17.09181       24.65177       26.19006
H         17.52264       26.28502       25.68699
H         17.46406       25.87487       27.39659
C         19.44036       23.98163       27.39323
H         18.88022       23.08459       27.12574
H         19.12235       24.28817       28.38324
H         20.49503       23.72278       27.43570
C         19.44725       24.45025       24.98306
H         18.86292       23.53462       24.87957
H         20.49656       24.19840       24.86702
H         19.15255       25.11985       24.18047
C         19.95177       27.63365       28.23448
C         18.85374       28.67006       27.99258
H         18.60936       29.17912       28.92580
H         17.94889       28.19918       27.61808
H         19.16666       29.42383       27.27671
C         19.47727       26.72139       29.36839
H         19.39111       27.28744       30.29761
H         20.18250       25.91135       29.52586
H         18.50097       26.29677       29.15424
C         21.20908       28.34748       28.74138
H         21.02576       28.78104       29.72517
H         21.50916       29.15001       28.07646
H         22.03815       27.64026       28.81595
C         26.55940       25.16032       30.14333
C         27.37963       24.97113       31.41951
H         28.32943       24.49004       31.18370
H         26.85328       24.34636       32.13548
H         27.60030       25.92235       31.89413
C         27.34922       26.03961       29.16651
H         28.23546       25.50954       28.81586
H         27.67797       26.96115       29.63265
H         26.72752       26.28823       28.30014
C         26.41616       23.79906       29.46415
H         27.39427       23.41110       29.17639
H         25.81278       23.91778       28.56202
H         25.95131       23.06646       30.11721
C         24.86601       27.55926       31.49201
C         24.98184       27.22587       32.98173
H         25.11000       28.14313       33.55689
H         25.83518       26.58382       33.17762
H         24.09065       26.72836       33.35029
C         26.07895       28.42149       31.12634
H         26.02437       29.37276       31.65697
H         26.10401       28.63100       30.06168
H         27.00811       27.94102       31.41630
C         23.63439       28.44454       31.28862
H         23.72471       29.34933       31.89092
H         22.72111       27.94024       31.58094
H         23.54708       28.73788       30.24656
C         23.46149       24.62322       31.09863
C         24.00210       23.74651       32.23025
H         23.21468       23.08995       32.60207
H         24.35245       24.35484       33.05938
H         24.82462       23.12051       31.89638
C         22.99167       23.71767       29.95180
H         22.18080       23.07199       30.29315
H         23.79230       23.07827       29.59005
H         22.60907       24.32220       29.12282
C         22.21037       25.33567       31.61996
H         21.43264       24.60640       31.85234
H         21.82383       26.01833       30.86966
H         22.41566       25.89317       32.52870
