51
CSD_code = MATYEL | q = 0 | S = 0 | Stoichiometry = C19H27Cl2NSiZr | MND = 8
Zr         5.83237        5.96538        4.10055
Si         3.36206        7.63276        4.65385
Cl         6.58992        4.26377        2.70250
N          3.95545        6.01876        4.79673
C          5.04683        8.21294        3.93030
Cl         6.80750        5.11402        6.03067
C          5.50426        7.81578        2.62858
C          6.91326        7.63524        2.66180
C          7.34848        7.86592        4.00180
C          6.20746        8.22776        4.76902
C          4.69503        7.70081        1.36574
C          7.77066        7.34690        1.45826
C          8.75637        7.76964        4.52967
C          6.24916        8.57688        6.23155
C          2.87648        8.45170        6.32074
C          1.84918        7.94364        3.50895
C          3.23168        4.76802        4.93622
C          2.41398        4.75263        6.22989
C          2.41314        4.54212        3.67420
C          1.05896        4.24018        3.66763
C          0.37508        4.11209        2.46841
C          1.03284        4.27997        1.26392
C          2.38736        4.57647        1.25963
C          3.06899        4.70947        2.45510
H          3.63040        7.71057        1.58017
H          4.94513        6.78096        0.82869
H          4.91304        8.53926        0.69905
H          8.82521        7.48704        1.68730
H          7.50975        8.02301        0.64305
H          7.62936        6.32163        1.10349
H          8.77297        7.21247        5.47130
H          9.17253        8.76309        4.71479
H          9.40514        7.25808        3.81824
H          5.48032        9.30808        6.46727
H          7.21835        9.00179        6.49189
H          6.08825        7.68786        6.85114
H          3.46660        8.07065        7.14697
H          1.83298        8.25748        6.54680
H          2.99962        9.52857        6.28375
H          1.77751        7.22390        2.70022
H          1.87120        8.93907        3.07924
H          0.93476        7.86268        4.08681
H          3.98684        3.94622        5.00179
H          3.08162        4.98586        7.05714
H          1.96622        3.77731        6.40280
H          1.64015        5.51493        6.18320
H          0.52377        4.10260        4.59329
H         -0.67979        3.88035        2.47890
H          0.49648        4.17970        0.33240
H          2.91080        4.70210        0.32321
H          4.13861        4.95007        2.45771
