55
CSD_code = MECFAB | q = 0 | S = 0 | Stoichiometry = C23H24O5RuSi2 | MND = 6
Ru        13.23348        1.13230        3.16710
Si        12.23057        3.39108        3.64411
Si        11.17010       -0.17922        3.76562
O         11.98127        1.41225        0.41462
O         15.80321        2.54767        2.42192
O         13.68068        1.10056        6.16915
O         14.59842       -1.50002        2.55875
O          9.89333        2.10437        2.63373
C         12.46139        1.30423        1.44905
C         14.81224        2.06433        2.71349
C         13.53790        1.10467        5.03050
C         14.03858       -0.53645        2.80120
C         11.15425        3.67441        5.22297
C         13.60911        4.73898        3.84320
C         10.13805        0.27514        5.33426
C         11.59296       -2.04412        4.08185
C         11.10951        4.05304        2.23469
C         11.29839        5.21518        1.50373
C         10.44192        5.53874        0.46572
C          9.37998        4.71163        0.14103
C          9.14449        3.54651        0.85775
C         10.02187        3.25276        1.89601
C          9.84827       -0.21213        2.37534
C          9.36452       -1.33208        1.71799
C          8.45293       -1.20048        0.68481
C          8.00423        0.04928        0.29227
C          8.45056        1.19621        0.93415
C          9.36437        1.02836        1.96893
C          7.97265        2.60631        0.63108
C          6.88227        2.96175        1.66215
C          7.38907        2.73301       -0.77553
H         11.59515        3.23338        6.11126
H         11.04814        4.74075        5.39995
H         10.16041        3.26118        5.10228
H         14.29948        4.47185        4.63880
H         14.19206        4.87699        2.93705
H         13.17270        5.69834        4.10248
H         10.76206        0.48420        6.19721
H          9.51207        1.14095        5.15626
H          9.48627       -0.55516        5.58964
H         10.70675       -2.59136        4.38727
H         11.99646       -2.53657        3.20172
H         12.32586       -2.14459        4.87791
H         12.12801        5.86275        1.73968
H         10.60234        6.44347       -0.10230
H          8.73463        4.98811       -0.67721
H          9.71363       -2.31068        2.00751
H          8.08769       -2.07949        0.17409
H          7.29857        0.11880       -0.51992
H          7.27068        2.87919        2.67504
H          6.53904        3.98266        1.50667
H          6.03660        2.28441        1.56087
H          7.03197        3.74503       -0.94681
H          8.13701        2.48855       -1.52663
H          6.53783        2.06770       -0.89295
