49
CSD_code = MENJIB | q = 0 | S = 0 | Stoichiometry = C17H24FeO5Si2 | MND = 8
Fe         5.67399       10.87621       13.59155
O          3.14376        8.62341       14.41656
C          3.53119        9.70894       14.02313
C          3.86882       10.90890       14.84118
C          3.87427       12.00227       13.93975
O          4.77560       14.04497       14.79789
H          4.70421       15.00576       14.80092
C          3.77228       13.49902       13.97482
H          2.77553       13.79458       14.34296
C          3.95460       13.88418       12.47987
H          3.36140       14.75497       12.20312
H          5.01190       14.12032       12.34021
C          3.59964       12.64348       11.63933
H          2.54140       12.65267       11.36126
H          4.18840       12.58029       10.72610
C          3.83173       11.52094       12.60126
C          3.82771       10.10688       12.61725
Si         3.56715        8.87293       11.21378
C          3.97747        9.72387        9.55531
H          3.26814       10.50869        9.31341
H          3.95195        9.00279        8.74558
H          4.97024       10.16294        9.56866
C          4.75840        7.42178       11.51927
H          5.79508        7.74636       11.47584
H          4.62730        6.62810       10.79047
H          4.58483        7.00042       12.50432
C          1.74260        8.32249       11.26220
H          1.50058        7.93295       12.24589
H          1.54899        7.53973       10.53514
H          1.06313        9.14419       11.05330
Si         3.61858       10.85274       16.71266
C          1.80275       10.34092       17.00290
H          1.10475       11.08847       16.63551
H          1.60202       10.19224       18.05952
H          1.59257        9.40900       16.48796
C          4.83156        9.54539       17.37836
H          4.67007        8.59685       16.87601
H          4.70458        9.38186       18.44388
H          5.86375        9.84098       17.20722
C          3.97152       12.55044       17.49965
H          4.88064       12.98809       17.10193
H          4.08727       12.45443       18.57400
H          3.16410       13.25279       17.31939
O          7.45920       12.53171       15.17187
C          6.72594       11.91416       14.55074
O          7.38192       11.30318       11.28255
C          6.69583       11.14196       12.18717
O          6.76280        8.30322       14.49204
C          6.29545        9.28645       14.15061
