124
CSD_code = MESKOK | q = 0 | S = 0 | Stoichiometry = C60H56MoO2P4Si | MND = 8
Mo        17.72747        1.31389       13.24175
P         16.83119        2.90089       11.64644
P         16.91533       -0.14876       11.48011
P         17.81790       -0.53340       14.79503
P         17.55695        2.51737       15.28092
Si        19.53361        3.05230       13.11712
O         15.67723        1.45275       14.07652
O         14.93529        1.12648       12.02746
C         17.05328        2.17400        9.97190
C         16.54282        0.74510        9.90100
C         18.24963        0.21035       16.43455
C         17.24538        1.32850       16.65257
C         15.19636        3.72076       11.58804
C         14.95295        4.65675       12.58602
C         13.74310        5.32223       12.65184
C         12.76166        5.06059       11.71040
C         13.00108        4.13608       10.70633
C         14.20879        3.46509       10.64355
C         18.21749       -1.27767       10.81234
C         17.87613       -2.13508        9.76583
C         18.80343       -3.00566        9.22902
C         20.09417       -3.04191        9.73369
C         20.44347       -2.19775       10.77135
C         19.51251       -1.32177       11.30456
C         15.65247       -1.47487       11.57035
C         14.35496       -1.42588       11.07840
C         13.50643       -2.50724       11.24842
C         13.93641       -3.64361       11.91117
C         15.22864       -3.69965       12.40831
C         16.07484       -2.62316       12.23603
C         16.43423       -1.58681       15.39342
C         15.16257       -1.49030       14.84618
C         14.11913       -2.25992       15.33306
C         14.33792       -3.14607       16.37142
C         15.60699       -3.26252       16.91824
C         16.64578       -2.49062       16.43622
C         19.14179       -1.77586       14.62258
C         20.46226       -1.33312       14.62914
C         21.50520       -2.21537       14.42501
C         21.24635       -3.55733       14.19816
C         19.93871       -4.00871       14.19076
C         18.89363       -3.12752       14.40555
C         16.38154        3.85115       15.66694
C         16.78028        5.16444       15.41892
C         15.92527        6.21800       15.68373
C         14.65552        5.97176       16.18178
C         14.24467        4.66885       16.40785
C         15.10165        3.61253       16.15481
C         17.79912        4.42788       11.41123
C         17.36868        5.43614       10.55411
C         18.11612        6.59065       10.41602
C         19.29226        6.74556       11.13427
C         19.72619        5.73552       11.97337
C         18.98626        4.57000       12.11965
C         20.00647        3.63274       14.86327
C         21.17182        4.29915       15.21144
C         21.40196        4.67817       16.52257
C         20.45325        4.41151       17.49774
C         19.28302        3.75342       17.16447
C         19.07127        3.34316       15.85319
C         21.16348        2.50874       12.29842
C         21.34647        2.65257       10.92896
C         22.47462        2.15934       10.29984
C         23.44673        1.50416       11.03678
C         23.28351        1.35423       12.40344
C         22.15164        1.85239       13.02223
C         14.75655        1.35866       13.23562
C         13.33154        1.54823       13.74175
H         19.13043        0.82213       13.81423
H         16.60183        2.81736        9.20751
H         18.14332        2.18271        9.83253
H         18.66418        1.05751       11.97734
H         17.01680        0.21113        9.07121
H         15.46089        0.73237        9.76436
H         18.21841       -0.53267       17.23696
H         19.26211        0.62777       16.36722
H         17.35582        1.80950       17.63001
H         16.22698        0.93325       16.55973
H         15.73201        4.86450       13.30689
H         13.56998        6.04333       13.43812
H         11.81312        5.57596       11.75662
H         12.23812        3.93487        9.96726
H         14.37361        2.73405        9.86656
H         16.86587       -2.12660        9.37392
H         18.52005       -3.66124        8.41737
H         20.81943       -3.72573        9.31666
H         21.44588       -2.21490       11.17417
H         19.80264       -0.66302       12.10796
H         13.99286       -0.54213       10.57631
H         12.49930       -2.46063       10.85760
H         13.26784       -4.48257       12.03986
H         15.57237       -4.58226       12.92937
H         17.09080       -2.65139       12.61005
H         14.98290       -0.82060       14.02096
H         13.13760       -2.16951       14.89039
H         13.52709       -3.74990       16.75199
H         15.78677       -3.96127       17.72294
H         17.63508       -2.60561       16.85921
H         20.67342       -0.28187       14.77389
H         22.52287       -1.85302       14.43446
H         22.05942       -4.24752       14.02748
H         19.72714       -5.05383       14.01588
H         17.88072       -3.50445       14.41493
H         17.76695        5.35411       15.01372
H         16.24785        7.23205       15.49569
H         13.98704        6.79453       16.39112
H         13.25125        4.47453       16.78748
H         14.77205        2.59948       16.33185
H         16.44641        5.32289        9.99876
H         17.78072        7.37329        9.75020
H         19.87044        7.65292       11.03167
H         20.64905        5.84701       12.52361
H         21.90486        4.51384       14.44746
H         22.31569        5.19093       16.78753
H         20.62426        4.72178       18.51893
H         18.53700        3.57390       17.92768
H         20.59033        3.16594       10.35048
H         22.59795        2.28251        9.23277
H         24.32816        1.11385       10.54799
H         24.04172        0.84769       12.98496
H         22.03105        1.73904       14.09094
H         13.22078        1.12119       14.73567
H         13.12789        2.61696       13.79089
H         12.63303        1.08471       13.05105
