57
CSD_code = MINDAO | q = 0 | S = 0 | Stoichiometry = C19H27N2O5PSi2W | MND = 6
W          1.56609       13.04508        2.27502
P          1.24442       10.82959        3.29598
Si         0.98120        7.94440        2.23790
Si        -1.53532        9.59127        3.74991
N          2.58027       10.02251        4.07184
N          2.52575        9.99918        7.21225
O          2.00876       15.87086        1.01270
O         -1.32148       12.92038        1.04713
O          2.62863       11.69942       -0.35824
O          4.42088       12.97043        3.58352
O          0.57501       14.37441        4.94189
C          1.84764       14.83527        1.47100
C         -0.27473       12.98192        1.50565
C          2.24669       12.17684        0.60662
C          3.39765       13.02315        3.07956
C          0.91159       13.89827        3.95733
C          0.06147        9.57357        2.68454
H         -0.23539       10.00535        1.72040
C         -0.23386        6.80153        1.31641
H         -0.95058        6.35244        1.99516
H          0.30645        5.99465        0.83401
H         -0.78837        7.33008        0.54895
C          1.66221        7.00571        3.75232
H          0.91896        6.89259        4.53408
H          2.51599        7.52333        4.17535
H          1.98766        6.01191        3.46006
C          2.40729        8.46048        1.08505
H          2.03679        8.86311        0.14613
H          3.06405        7.62884        0.84833
H          3.00835        9.23195        1.56053
C         -2.98465        8.92219        2.70945
H         -3.10826        9.48411        1.78919
H         -3.91416        8.99575        3.26415
H         -2.84394        7.88096        2.44271
C         -1.92636       11.40086        4.21499
H         -2.39495       11.92317        3.38588
H         -1.02146       11.94927        4.46979
H         -2.60531       11.46438        5.06061
C         -1.34627        8.52721        5.32222
H         -0.41598        8.72415        5.84480
H         -1.37949        7.46961        5.08101
H         -2.15846        8.72674        6.01432
C          1.72354       10.45142        4.95338
C          1.58707       10.51179        6.33647
C          0.56313       11.07391        7.10115
H         -0.31266       11.55218        6.71180
C          0.89864       10.89160        8.43582
H          0.33105       11.20515        9.28923
C          2.11678       10.22671        8.47654
C          3.74657        9.34500        6.83468
H          3.86178        9.40342        5.75389
H          3.72799        8.29501        7.13677
H          4.59987        9.83066        7.31158
C          2.91302        9.79986        9.65388
H          3.08703        8.72381        9.63486
H          2.38514       10.05355       10.56825
H          3.88448       10.29514        9.66359
