93
CSD_code = MISPIN | q = 0 | S = 0 | Stoichiometry = C26H58HfSi8 | MND = 12
Hf         1.09200        4.59662       16.25690
Si         1.17362        4.57763       18.96383
C          2.21215        3.23315       14.38539
H          2.28546        3.59286       13.36776
Si        -0.91463        5.79764       19.32732
C          1.26184        2.30231       14.85574
H          0.46425        1.87144       14.27254
Si        -2.49149        5.39703       17.55577
C          1.64356        1.89954       16.14321
H          1.17252        1.12512       16.72522
Si        -1.53377        4.47269       15.50554
C          2.83506        2.56667       16.47652
H          3.44899        2.37413       17.34190
Si         0.79397        2.45213       20.00863
C          3.19642        3.38488       15.38931
H          4.15069        3.87840       15.27148
Si         3.09679        5.44859       20.11799
C          2.55672        6.33773       14.93401
H          3.27485        6.08204       14.16878
Si        -2.67665        2.41032       14.93487
C          1.21541        6.69502       14.70392
H          0.74725        6.75194       13.73457
Si        -2.21858        5.83010       13.60492
C          0.69184        7.20764       15.91019
H         -0.27452        7.66868       16.03434
C          1.70147        7.15107       16.87883
H          1.65290        7.57543       17.86579
C          2.85103        6.59369       16.28567
H          3.83321        6.55752       16.73320
C         -1.73472        5.32142       20.99846
H         -2.62126        5.91883       21.19209
H         -1.06012        5.46433       21.83739
H         -2.04004        4.28120       20.99248
C         -0.69364        7.69635       19.53929
H         -1.61860        8.16379       19.86416
H         -0.40153        8.17545       18.61230
H          0.06167        7.93064       20.28332
C         -3.84515        4.23065       18.25074
H         -4.18597        4.54652       19.23181
H         -3.46996        3.21780       18.34570
H         -4.71341        4.19791       17.60177
C         -3.45193        7.02881       17.22233
H         -3.99909        7.35676       18.10153
H         -4.17037        6.91629       16.41583
H         -2.77366        7.82990       16.94844
C          2.20897        1.17165       19.82453
H          2.01536        0.27669       20.41090
H          3.15264        1.58262       20.17129
H          2.34711        0.85862       18.79622
C          0.36969        2.36348       21.87498
H         -0.01678        1.38389       22.14791
H         -0.38210        3.09449       22.14718
H          1.24183        2.55118       22.49268
C         -0.74145        1.79615       19.07280
H         -0.77191        0.71187       19.03587
H         -0.76120        2.16982       18.04923
H         -1.65461        2.12632       19.55580
C          3.12089        4.94415       21.96557
H          3.95523        5.39076       22.49979
H          3.20426        3.86771       22.07157
H          2.20941        5.25218       22.46726
C          3.37482        7.34301       20.10022
H          4.18517        7.62740       20.76701
H          2.48833        7.87604       20.42858
H          3.62947        7.70820       19.11119
C          4.65680        4.66275       19.32167
H          5.57514        5.09061       19.71443
H          4.66937        4.79903       18.24361
H          4.69180        3.59443       19.51270
C         -2.16594        0.84795       15.91515
H         -2.64398       -0.03848       15.50549
H         -2.46675        0.92160       16.95427
H         -1.09566        0.67543       15.89254
C         -4.58074        2.48593       15.14177
H         -5.08458        1.79407       14.47142
H         -4.96805        3.47732       14.93587
H         -4.87170        2.22578       16.15388
C         -2.36503        1.96412       13.09328
H         -2.65914        0.94051       12.87524
H         -1.31892        2.06286       12.82155
H         -2.92905        2.61050       12.42933
C         -4.03529        5.54443       13.06349
H         -4.28469        6.12466       12.17841
H         -4.72504        5.84077       13.84792
H         -4.22998        4.50282       12.83460
C         -2.12074        7.74134       13.72765
H         -2.50723        8.20308       12.82163
H         -1.11108        8.10886       13.86787
H         -2.71983        8.11007       14.55313
C         -1.11272        5.31673       12.11582
H         -0.89600        6.15439       11.45866
H         -1.59780        4.55476       11.51504
H         -0.16119        4.90385       12.44418
