75
CSD_code = MIVMUZ | q = 0 | S = 0 | Stoichiometry = C27H45NSiTi | MND = 10
C          1.22482        1.93889       14.10619
C          2.52706        1.37394       14.29160
C          2.75789        0.43405       13.25710
C          1.63217        0.43004       12.40435
C          0.69691        1.37019       12.90277
C         -0.72490        1.52477       12.44729
H         -1.03397        2.56673       12.47600
H         -1.38702        0.96212       13.11081
H         -0.86563        1.14261       11.43815
C          4.23784        2.68341       11.26135
C          4.64773        2.89852       12.45433
C          5.99875        3.17926       13.03464
C          6.70826        1.86204       13.37810
H          7.72258        2.06153       13.72053
H          6.75963        1.21747       12.50244
H          6.17863        1.33291       14.16571
C          1.91281        2.85192       10.33679
C          3.17365        2.66459       10.44276
C          1.35036        4.17908       16.41903
H          0.78508        5.03613       16.77118
H          2.40194        4.43510       16.49346
H          1.15506        3.36175       17.10536
C         -1.06242        4.13724       14.63438
H         -1.25456        4.99645       15.26921
H         -1.64220        3.30943       15.02917
H         -1.44803        4.37295       13.64838
C          1.99810        5.72949       12.98659
C          2.93265        5.82373       11.76865
H          2.48189        5.30840       10.91657
H          3.88917        5.34791       12.00008
H          3.10965        6.86478       11.50090
C          1.01093        3.09608        9.16678
C         -0.16591        3.98699        9.57919
H          0.18587        4.98946        9.81766
H         -0.66718        3.57661       10.45277
H         -0.88538        4.06351        8.76534
C          3.34123        1.51043       15.54498
H          3.32036        2.53124       15.91621
H          4.37586        1.21224       15.38660
H          2.92579        0.86359       16.32298
C          3.90804       -0.52020       13.11472
H          4.57702       -0.46721       13.96996
H          4.48438       -0.31382       12.20930
H          3.53677       -1.54499       13.04302
C          1.46240       -0.53580       11.26777
H          0.46196       -0.48391       10.84587
H          1.62412       -1.55723       11.61974
H          2.18594       -0.34255       10.47204
C          6.84085        3.93414       11.99215
H          7.82038        4.17796       12.40055
H          6.34891        4.86037       11.69763
H          6.97714        3.32335       11.10158
C          5.86730        4.03993       14.29571
H          6.83452        4.14425       14.78511
H          5.16647        3.58970       14.99466
H          5.50795        5.03446       14.03596
C          2.64587        6.48033       14.16312
H          1.95217        6.53372       14.99668
H          2.91942        7.49118       13.86853
H          3.53672        5.94934       14.48930
C          0.66635        6.41970       12.64247
H          0.04174        6.48324       13.52841
H          0.13901        5.83968       11.88917
H          0.84133        7.42428       12.26346
C          1.81337        3.79828        8.05841
H          2.23921        4.73167        8.42455
H          1.17096        4.02135        7.20795
H          2.62911        3.16166        7.72082
C          0.47973        1.76384        8.62035
H          1.30340        1.09501        8.37763
H         -0.10293        1.93632        7.71664
H         -0.15888        1.27613        9.35174
N          1.78308        4.33744       13.31847
Si         0.82143        3.72458       14.62106
Ti         2.45180        2.75592       12.47593
