137
CSD_code = MOFCEP | q = 0 | S = 0 | Stoichiometry = C50H76CrO6P2Si2 | MND = 6
Cr         4.41957       17.03263        7.21927
C          5.31664       17.68922        8.68117
O          5.87836       18.07101        9.61858
C          5.60288       15.60415        7.34872
O          6.48506       14.87833        7.52714
C          3.27211       16.35374        8.51513
O          2.72519       16.03409        9.48390
C          3.41758       18.60317        7.19551
O          2.86799       19.61078        7.31837
C          5.84429       17.71044        6.22473
O          6.86823       18.07564        5.84485
P          2.67538       16.05345        2.83547
P          2.27682       14.87820        5.28468
Si         4.14266       19.29671        3.46625
Si         1.04621       13.18417        2.81228
O          4.42725       17.76974        4.01325
C          3.63447       16.69517        4.21654
C          3.34345       16.27074        5.49425
C          1.98769       14.61152        3.61748
C          2.26616       19.64428        3.52912
H          1.91945       19.67031        4.55883
H          1.70321       18.86801        3.01522
H          2.01233       20.59448        3.07154
C          5.09902       20.48654        4.59139
H          4.76906       20.43322        5.62354
H          4.96805       21.50876        4.25218
H          6.16201       20.27035        4.57753
C          4.83525       19.43207        1.69548
H          4.24097       18.89304        0.96576
H          5.84340       19.02974        1.65121
H          4.88058       20.47078        1.38516
C          1.67788       12.95412        1.02074
H          2.41339       13.70428        0.74382
H          0.86351       13.00696        0.30484
H          2.14597       11.98176        0.90146
C          1.40757       11.57545        3.76096
H          1.01497       10.71990        3.21961
H          0.93861       11.59134        4.73859
H          2.47317       11.41759        3.89624
C         -0.84653       13.43814        2.83515
H         -1.16326       14.31831        2.28445
H         -1.20816       13.53017        3.85500
H         -1.34038       12.58007        2.38893
C          3.69481       15.95376        1.31010
C          5.06780       15.61568        1.30970
C          5.86804       16.12328        0.29021
H          6.92671       15.95085        0.34818
C          5.37460       16.84150       -0.78020
C          3.99942       16.98672       -0.84691
H          3.58766       17.47530       -1.71332
C          3.14052       16.59172        0.17141
C          5.82412       14.68904        2.26684
C          6.80735       15.51088        3.11125
H          6.27789       16.26899        3.68207
H          7.54697       16.01059        2.49097
H          7.33062       14.86136        3.80963
C          4.94588       13.87052        3.20811
H          4.55424       14.48918        4.00960
H          5.55063       13.09246        3.67168
H          4.13220       13.39204        2.66796
C          6.59837       13.65099        1.42605
H          7.39157       14.08874        0.82924
H          5.91739       13.12623        0.75843
H          7.06004       12.92130        2.08747
C          6.25290       17.41997       -1.87633
C          5.91136       16.72581       -3.20264
H          6.54844       17.10562       -3.99832
H          4.87633       16.89783       -3.48557
H          6.06744       15.65229       -3.11772
C          5.98714       18.92732       -1.99294
H          6.62347       19.35951       -2.76213
H          6.20151       19.42085       -1.04814
H          4.95329       19.13215       -2.25634
C          7.74569       17.22183       -1.60024
H          8.32567       17.69081       -2.39236
H          8.00593       16.16593       -1.57901
H          8.03239       17.68189       -0.65743
C          1.66397       16.88037       -0.15023
C          1.47543       18.39087       -0.37327
H          2.04523       18.76150       -1.21977
H          1.78654       18.94061        0.51225
H          0.42533       18.60521       -0.56060
C          0.60864       16.46083        0.87393
H          0.59012       17.12376        1.73561
H          0.75695       15.43733        1.20353
H         -0.37147       16.52098        0.40033
C          1.31792       16.10944       -1.44011
H          1.96446       16.36960       -2.27170
H          0.29357       16.32523       -1.73652
H          1.40755       15.03951       -1.26705
C          1.02449       14.13073        6.36823
C         -0.27943       14.68802        6.34151
C         -1.33519       13.85214        6.66058
H         -2.34067       14.22034        6.56828
C         -1.16222       12.54481        7.10078
C          0.13161       12.12944        7.34402
H          0.29401       11.17623        7.81167
C          1.24450       12.88140        6.97102
C         -0.55873       16.18079        6.14374
C         -2.02288       16.53981        6.44304
H         -2.69951       16.12447        5.69893
H         -2.12885       17.62220        6.41536
H         -2.32007       16.20761        7.43470
C          0.30426       16.93554        7.16227
H          0.07494       16.60763        8.17426
H          0.11574       18.00499        7.09582
H          1.36460       16.76628        6.97731
C         -0.25451       16.70149        4.73438
H         -0.63824       16.02482        3.97542
H          0.81479       16.83786        4.58586
H         -0.72553       17.67365        4.60107
C         -2.37773       11.66434        7.33329
C         -3.27297       12.29932        8.40605
H         -3.64747       13.26893        8.09017
H         -2.71513       12.43331        9.33034
H         -4.12632       11.65585        8.60811
C         -2.00236       10.25332        7.79396
H         -1.35501        9.76459        7.06930
H         -2.90462        9.65423        7.89668
H         -1.50616       10.27499        8.76138
C         -3.14823       11.54585        6.01005
H         -3.49174       12.51576        5.66116
H         -4.01717       10.90469        6.13959
H         -2.51040       11.11320        5.24179
C          2.59317       12.31257        7.40854
C          2.68563       12.58330        8.92064
H          1.86211       12.11392        9.45355
H          2.65467       13.65043        9.11999
H          3.61994       12.18730        9.31161
C          2.69487       10.79492        7.17289
H          2.06277       10.22711        7.84938
H          3.71899       10.47437        7.34978
H          2.43030       10.53759        6.15148
C          3.80009       12.95421        6.73741
H          4.71296       12.51798        7.14197
H          3.84527       14.02646        6.94656
H          3.79155       12.77508        5.66181
