126
CSD_code = MOGPUU | q = 0 | S = 0 | Stoichiometry = C51H51BF15N5Si2Zr | MND = 6
B          6.54478        2.82693        7.96509
C          1.42130       -0.00025        9.35475
H          0.53479       -0.61522        9.17210
H          1.09688        1.04728        9.44099
C          1.92877       -0.40879       10.78595
C          2.75682        0.75584       11.44757
H          2.13555        1.17816       12.24515
H          3.64521        0.31275       11.94551
C          0.69678       -0.67886       11.65913
H          0.04144       -1.42886       11.22122
H          0.12096        0.23786       11.76072
H          0.99497       -1.00625       12.65344
C          2.81681       -1.60419       10.65179
C          2.40572       -2.89151       10.99760
H          1.40005       -3.06630       11.33870
C          3.28991       -3.94794       10.91650
H          2.98313       -4.94728       11.18437
C          4.58671       -3.68389       10.50008
H          5.33108       -4.46157       10.44941
C          4.90878       -2.39170       10.13868
H          5.91622       -2.17891        9.81227
C          2.56506       -2.97443        7.27802
H          3.61057       -3.03090        7.57523
H          2.44794       -3.58990        6.39235
H          1.98345       -3.43329        8.07275
C          3.03971       -0.49560        5.47243
H          3.05296        0.59057        5.44567
H          2.61852       -0.83844        4.53619
H          4.06178       -0.85359        5.49185
C          0.15253       -1.22278        6.38926
C         -0.47838        0.17034        6.45478
H         -1.49208        0.14853        6.05377
H          0.10285        0.88169        5.87284
H         -0.52801        0.53534        7.47698
C          0.04800       -1.71583        4.94243
H          0.56633       -2.66272        4.81068
H          0.46949       -0.99088        4.25250
H         -0.99767       -1.86266        4.67162
C         -0.67017       -2.18900        7.24630
H         -0.64516       -1.92346        8.30114
H         -0.29649       -3.20497        7.14487
H         -1.71336       -2.17959        6.92877
C          2.68630        3.76462       12.68477
H          1.79092        3.42403       13.19498
H          2.77665        4.82860       12.87194
H          3.53395        3.27510       13.15398
C          3.96950        4.47290        9.94448
H          4.69993        3.83280        9.46064
H          4.48312        5.10209       10.66275
H          3.55028        5.13410        9.19552
C          0.89539        3.98337       10.16954
C          0.70856        5.46094       10.52934
H          1.51802        6.06568       10.13111
H          0.68343        5.59499       11.60701
H         -0.22913        5.83442       10.11870
C          0.80258        3.84920        8.64712
H         -0.19877        4.10298        8.29931
H          1.03221        2.83681        8.31430
H          1.50132        4.53144        8.17036
C         -0.25891        3.20567       10.80707
H         -1.21554        3.61503       10.48201
H         -0.21839        3.27118       11.89196
H         -0.23332        2.15623       10.52467
C          6.62320        0.66831       10.75111
C          6.14700        1.74109       11.52161
H          5.66175        2.57082       11.02591
C          6.31712        1.74443       12.89192
H          5.95982        2.58671       13.46514
C          6.94783        0.68987       13.53362
H          7.08041        0.69930       14.60382
C          7.42087       -0.37058       12.77934
H          7.92663       -1.19331       13.26253
C          7.26697       -0.38931       11.40636
H          7.67137       -1.21992       10.84764
C          6.90366       -0.34248        8.52162
C          8.26130       -0.66136        8.44876
H          8.96993       -0.13722        9.06635
C          8.70058       -1.64162        7.57448
H          9.75431       -1.86804        7.52224
C          7.80531       -2.32807        6.77116
H          8.15517       -3.08690        6.08958
C          6.45084       -2.03624        6.85055
H          5.74563       -2.57608        6.23603
C          5.99927       -1.05790        7.71953
H          4.92412       -0.82863        7.79119
C          5.50794        3.67207        6.98652
C          4.15745        3.41922        6.81838
C          3.36195        4.02291        5.85129
C          3.91503        4.97638        5.00714
C          5.26943        5.27270        5.13808
C          6.03202        4.61090        6.09330
C          7.42815        2.06512        6.80377
C          8.77006        2.18917        6.46704
C          9.34625        1.44663        5.43748
C          8.56974        0.56551        4.69408
C          7.21576        0.43714        4.98734
C          6.68913        1.18562        6.02488
C          7.41193        3.81901        8.94873
C          7.11948        5.15846        9.19350
C          7.78546        5.92623       10.14369
C          8.79890        5.36645       10.90859
C          9.13067        4.03601       10.69190
C          8.44306        3.30801        9.73133
F          3.49686        2.46714        7.59809
F          2.08135        3.65955        5.72701
F          3.17182        5.57610        4.07557
F          5.83233        6.16523        4.32169
F          7.33921        4.89137        6.12976
F          9.56104        3.03480        7.13130
F         10.64663        1.57180        5.15807
F          9.11587       -0.16004        3.71319
F          6.44738       -0.40577        4.28423
F          5.35268        1.02863        6.33277
F          6.15271        5.79370        8.50736
F          7.44028        7.20759       10.32874
F          9.43710        6.09012       11.83465
F         10.10221        3.45708       11.41056
F          8.82168        2.02891        9.56954
N          2.36731       -0.11930        8.27132
N          3.17742        1.77943       10.53021
N          4.05568       -1.35985       10.17717
N          5.76549        1.80042        8.77853
N          6.38887        0.67306        9.37547
Si         2.01702       -1.14477        6.95151
Si         2.65136        3.39119       10.79639
Zr         4.08480        0.78981        8.97941
