66
CSD_code = MOZFAI | q = 0 | S = 0 | Stoichiometry = C20H32B10N2SiZr | MND = 13
Zr         2.90947        8.01715        3.61448
Si         2.14893       11.01870        4.86012
N          3.16026        7.10710        1.57654
N          4.25258        6.77383        4.60626
C          1.32461        9.31441        4.82327
C          2.04455        6.66693        5.42525
C          2.88797       11.61981        6.52203
H          3.64626       10.94549        6.90376
H          2.11174       11.69708        7.27560
H          3.34181       12.59963        6.41518
C          1.09182       12.46957        4.19524
H          1.71226       13.21880        3.71480
H          0.56378       12.95422        5.00943
H          0.34829       12.14018        3.47900
C          3.45135        6.14918        5.66085
H          3.83991        6.42465        6.66605
H          3.51370        5.04014        5.59498
C          5.64718        6.43515        4.78004
H          5.78033        5.34061        4.87420
H          6.07078        6.88312        5.70016
H          6.24955        6.76970        3.93214
C          3.52944       10.42963        3.69632
C          4.69948        9.73652        4.11455
H          5.10336        9.76176        5.12291
C          5.35633        9.17215        3.00909
H          6.34795        8.74296        3.00612
C          4.86337        9.31667        0.47914
H          5.74369        8.77474        0.15650
C          3.99816        9.85844       -0.43900
H          4.18822        9.73762       -1.49577
C          2.88278       10.61061       -0.02867
H          2.24694       11.05097       -0.78297
C          2.60803       10.81581        1.30222
H          1.78260       11.44839        1.59485
C          3.45418       10.25840        2.27951
C          4.60966        9.49636        1.84952
C          2.48239        7.42233        0.46016
H          1.81841        8.27763        0.52738
C          2.59764        6.71105       -0.71971
H          2.03068        7.01165       -1.58583
C          3.44936        5.61576       -0.76949
H          3.55969        5.03908       -1.67436
C          4.15808        5.28406        0.37906
H          4.83385        4.44334        0.38665
C          3.99047        6.04937        1.51730
H          4.52256        5.82045        2.43841
B          1.93277        8.27165        5.86346
H          2.76168        8.68631        6.61544
B          1.41523        6.14481        3.98932
H          2.01710        5.24880        3.45736
B          0.47881        7.29517        3.07657
H          0.19775        7.09162        1.92802
B          0.63046        8.90834        3.50059
H          0.34644        9.76755        2.72365
B          0.89225        7.08714        6.61413
H          1.07176        6.87616        7.75904
B          0.63543        5.73302        5.55789
H          0.68867        4.64663        6.01089
B         -0.34844        6.16150        4.15965
H         -1.07116        5.35041        3.69956
B         -0.76859        7.87076        4.25587
H         -1.80246        8.33409        3.92875
B          0.11739        8.60424        5.84212
B         -0.64331        7.00658        5.73947
H         -1.62523        6.81354        6.36301
H         -0.40362        9.41251        6.52456
