111
CSD_code = MUJPIR | q = 0 | S = 0 | Stoichiometry = C53H53N2RhSi2 | MND = 4
C          8.57239        0.94610        9.45582
H          9.59781        0.80079        9.75834
C          7.67660       -0.10042        9.51569
H          8.00446       -1.06429        9.86687
C          6.36587        0.11477        9.09390
H          5.64909       -0.69222        9.09141
C          6.00114        1.37371        8.68403
H          4.99912        1.58657        8.34848
C          6.94190        2.41549        8.68914
C          6.65327        3.76787        8.34659
C          5.49269        4.54307        8.10881
C          5.94727        5.83598        7.85513
H          5.32656        6.68938        7.66097
C          7.34708        5.82241        7.96174
C          4.09171        4.14765        8.19256
C          3.19591        4.52036        7.19275
H          3.55998        5.07276        6.33854
C          1.85998        4.17709        7.28178
H          1.17696        4.46695        6.49615
C          1.39483        3.46375        8.37406
H          0.35075        3.19584        8.44316
C          2.27369        3.10184        9.38188
H          1.91365        2.55659       10.24286
C          3.61046        3.44142        9.29424
H          4.29129        3.17596       10.09112
C          8.31973        6.89184        7.90743
C          7.96308        8.20279        7.58427
H          6.93733        8.42237        7.33121
C          8.90472        9.21213        7.59006
H          8.61128       10.22079        7.33764
C         10.22184        8.94010        7.92202
H         10.95647        9.73118        7.93112
C         10.59516        7.64386        8.24431
H         11.62194        7.43255        8.50669
C          9.65745        6.63306        8.23204
H          9.97797        5.59529        8.49630
C         12.61786        4.82726        6.82170
H         11.83610        5.50387        7.12874
C         13.85779        5.34041        6.48301
H         14.03663        6.40465        6.54678
C         14.86621        4.49183        6.06099
H         15.83749        4.88601        5.79958
C         14.61383        3.13411        5.96545
H         15.38886        2.46370        5.62168
C         13.36961        2.63099        6.30285
H         13.18845        1.57125        6.20589
C         12.34934        3.46409        6.75205
C         10.88825        0.88829        7.43212
C         11.99524        0.49093        8.17750
H         12.66296        1.24632        8.56328
C         12.25920       -0.84301        8.43024
H         13.13297       -1.12168        9.00261
C         11.40284       -1.82110        7.95291
H         11.60355       -2.86466        8.14728
C         10.28678       -1.44756        7.22564
H          9.60788       -2.20098        6.85160
C         10.03719       -0.10962        6.97280
H          9.15770        0.15242        6.40657
C          9.68786        3.06372        5.38913
C         10.42087        2.24750        4.32235
H         10.37302        1.18298        4.53694
H         11.46738        2.53778        4.26445
H          9.96801        2.41898        3.34561
C          8.21039        2.67792        5.39067
H          7.79515        2.79345        4.38899
H          7.64747        3.31893        6.06097
H          8.05384        1.64809        5.69864
C          9.77684        4.54403        5.01451
H          9.28601        4.71756        4.05681
H         10.81155        4.86466        4.92484
H          9.28492        5.16338        5.76113
C         10.75315        1.96238       12.02993
C         11.22206        0.69627       11.69414
H         11.66541        0.53701       10.72256
C         11.13729       -0.36265       12.58030
H         11.50879       -1.33646       12.29317
C         10.58051       -0.17397       13.83375
H         10.51414       -0.99743       14.53029
C         10.11333        1.07979       14.18962
H          9.68275        1.23762       15.16870
C         10.19914        2.13258       13.29595
H          9.83229        3.10632       13.58875
C          9.47909        4.64457       11.35573
C          9.56601        6.03731       11.34261
H         10.53005        6.51256       11.22998
C          8.44736        6.83744       11.49801
H          8.55069        7.91354       11.48232
C          7.19614        6.26364       11.64863
H          6.31915        6.88663       11.74527
C          7.07874        4.88453       11.67708
H          6.10707        4.42796       11.80621
C          8.20236        4.08842       11.52437
H          8.10143        3.01124       11.60453
C         12.70031        4.11444       11.18793
C         13.07319        5.30741       10.31272
H         14.09533        5.62509       10.52365
H         12.41962        6.15586       10.49785
H         13.01206        5.04287        9.25933
C         12.78257        4.51856       12.66013
H         12.58755        3.66496       13.30566
H         12.06028        5.29776       12.89488
H         13.77850        4.89788       12.89247
C         13.71253        3.00476       10.92148
H         13.71576        2.73801        9.86678
H         13.48286        2.11716       11.50538
H         14.71699        3.33529       11.18719
N          7.74445        4.56777        8.22876
N          8.23637        2.16458        9.04198
Si        10.58819        2.76854        7.12795
Si        10.90849        3.42955       10.79463
Rh         9.46969        3.73753        8.97060
