43
CSD_code = NACCOJ | q = 0 | S = 0 | Stoichiometry = C16H23ClSi2Zr | MND = 12
Zr         3.34689        5.67723        6.13523
Si         4.57870        4.24963        3.56262
Si         5.97882        7.02181        5.02055
Cl         3.07085        7.16698        7.92480
C          1.62928        4.40506        6.67872
C          0.33754        5.24001        6.76368
C          5.13942        4.23880        5.36655
C          4.59915        3.45415        6.41427
C          4.88244        4.08785        7.64349
C          5.57881        5.27694        7.36729
C          5.74733        5.39299        5.96585
C          3.32007        2.83705        3.28890
C          5.95450        4.15728        2.24314
C          4.21503        7.04017        4.32296
C          3.16225        7.86098        4.79369
C          1.93691        7.22820        4.52059
C          2.21573        5.99436        3.88932
C          3.62085        5.87191        3.74029
C          7.38422        7.10242        3.72949
C          6.16085        8.43890        6.29204
H          4.16408        2.46754        6.30276
H          4.69226        3.67830        8.62813
H          5.99122        5.94841        8.11101
H          3.27458        8.85205        5.21746
H          0.95650        7.66789        4.65839
H          1.47746        5.33044        3.45325
H         -0.48111        4.67147        7.22359
H          0.49203        6.13620        7.37569
H         -0.00405        5.54398        5.76952
H          1.42573        3.53581        6.02302
H          1.81765        3.99652        7.69354
H          3.80674        1.87027        3.35479
H          2.52208        2.86365        4.02746
H          2.87054        2.90480        2.30441
H          6.01585        3.15218        1.84069
H          5.75518        4.82995        1.41619
H          6.92460        4.40701        2.65527
H          7.75447        8.11847        3.65068
H          8.21789        6.47090        4.01546
H          7.04994        6.79669        2.74590
H          6.13231        9.40669        5.80153
H          5.36356        8.41393        7.03294
H          7.10893        8.37202        6.81606
