112
CSD_code = NADYUO | q = 0 | S = 0 | Stoichiometry = C38H63ClN5Si4V | MND = 6
V          4.74917        4.37876        3.59978
Cl         5.84354        4.57671        1.77510
Si         2.97677        2.35743        6.07136
Si         8.00386        3.93050        4.59265
Si         1.75531        5.65849        2.83689
Si         4.41140        1.01087        1.79790
N          4.25991        3.26156        5.33396
N          6.29522        3.61988        4.61455
N          2.98617        4.43238        3.00888
N          3.95253        2.43545        2.65448
N          4.91643        5.86072        4.19146
C          5.53865        3.01018        5.48651
C          3.08207        3.31723        2.29319
C          5.06574        7.08734        4.69754
C          2.62469        2.91161        7.87596
H          3.31084        2.45365        8.58019
H          1.62175        2.60754        8.15769
H          2.68420        3.98841        8.00162
C          1.34977        2.64607        5.12446
H          1.05610        3.68992        5.15240
H          0.54827        2.06044        5.56513
H          1.44421        2.35421        4.08477
C          3.34668        0.47766        6.07220
H          3.77523        0.16957        5.12266
H          2.43934       -0.09795        6.22986
H          4.04789        0.20471        6.85524
C          8.87318        3.59707        6.26641
H          8.33371        4.03631        7.09919
H          9.86654        4.03235        6.25046
H          8.98176        2.53787        6.47050
C          8.85869        2.89163        3.23091
H          8.91803        1.83736        3.48736
H          9.87300        3.24462        3.07377
H          8.33108        2.98155        2.28525
C          8.20582        5.79329        4.20869
H          7.67509        6.04692        3.29495
H          9.25096        6.05425        4.07465
H          7.80666        6.41667        5.00508
C          6.08539        2.16144        6.56970
C          5.94513        2.55367        7.89571
H          5.43932        3.47879        8.12327
C          6.46861        1.77755        8.91279
H          6.36031        2.09798        9.93964
C          7.13138        0.58888        8.63525
C          7.27429        0.20560        7.30767
H          7.79240       -0.71372        7.07269
C          6.76854        0.98580        6.28493
H          6.89616        0.68001        5.25915
C          7.73622       -0.22976        9.73916
H          7.15278       -0.10841       10.65402
H          7.72759       -1.28670        9.46535
C          9.17819        0.21235        9.99785
H          9.77963        0.08444        9.10070
H          9.61935       -0.37572       10.79926
H          9.20646        1.26243       10.27978
C          2.16081        6.83018        1.37053
H          3.21774        6.80020        1.12267
H          1.90522        7.85662        1.61324
H          1.60152        6.55463        0.48086
C          1.77651        6.59626        4.50397
H          2.22373        5.98589        5.28388
H          0.77302        6.86832        4.81481
H          2.35683        7.51059        4.43208
C         -0.01173        4.98332        2.52944
H         -0.13592        4.62896        1.51128
H         -0.73291        5.77896        2.68713
H         -0.27243        4.16846        3.19579
C          4.80036        1.29294       -0.05583
H          3.89345        1.40013       -0.64439
H          5.36306        0.46005       -0.46696
H          5.39236        2.19356       -0.19702
C          6.00100        0.41691        2.66864
H          6.56726        1.26283        3.04715
H          6.63940       -0.13385        1.98494
H          5.77068       -0.24263        3.50059
C          3.08748       -0.36404        1.93647
H          2.59116       -0.35500        2.90239
H          3.54950       -1.33812        1.81268
H          2.32644       -0.26200        1.16947
C          2.26452        3.15980        1.06342
C          2.62114        3.85815       -0.08417
H          3.47386        4.52183       -0.05864
C          1.90685        3.67903       -1.25398
H          2.19548        4.22056       -2.14370
C          0.82416        2.80962       -1.30333
C          0.47515        2.11652       -0.15111
H         -0.36522        1.43668       -0.17265
C          1.18753        2.28467        1.02175
H          0.90140        1.74184        1.91044
C          0.08442        2.57798       -2.58981
H         -0.95802        2.33006       -2.37946
H          0.10479        3.48482       -3.19752
C          0.72760        1.43156       -3.37320
H          0.19547        1.26135       -4.30628
H          0.70565        0.51465       -2.78826
H          1.76488        1.66568       -3.60195
C          5.29380        8.20998        3.86304
C          5.39465        9.47163        4.42690
H          5.56022       10.31874        3.77661
C          5.29664        9.66221        5.79288
H          5.37401       10.65363        6.21286
C          5.11435        8.56574        6.61986
H          5.05872        8.70442        7.69021
C          5.00242        7.28959        6.10139
C          4.85990        6.11070        7.01256
H          4.28031        5.32698        6.52556
H          4.38964        6.40154        7.95010
H          5.85034        5.70615        7.23235
C          5.45714        8.05434        2.38314
H          6.47329        8.32650        2.09733
H          4.77471        8.71778        1.85379
H          5.27970        7.02363        2.08471
