141
CSD_code = NAHFIM | q = 1 | S = 0 | Stoichiometry = C51H82LaN2O4Si(1+) | MND = 7
La         4.22050        2.30481        5.32419
Si         3.32645       -0.97415        7.35557
O          5.73633        0.84508        3.31412
O          2.25360        0.92646        3.63229
O          1.54633        3.48328        5.82955
O          3.72268        3.93631        3.02164
N          4.85645        4.33077        6.86233
N          6.48663        3.47944        5.58798
C          4.26432        5.22498        7.76790
C          3.56365        4.69884        8.87769
C          2.98398        5.57210        9.78558
C          3.04734        6.94179        9.60734
C          3.67108        7.45055        8.48758
C          4.27705        6.61841        7.55731
C          3.46718        3.20159        9.09513
C          4.75258        2.64976        9.72215
C          2.27951        2.78994        9.96868
C          4.90057        7.25227        6.33292
C          3.84963        8.02409        5.52358
C          6.03516        8.20996        6.70678
C          6.15412        4.29694        6.57950
C          7.16375        5.08753        7.33680
C          7.00644        5.31802        8.70326
C          7.94817        6.03863        9.41489
C          9.06931        6.54612        8.78099
C          9.24001        6.32016        7.42607
C          8.30059        5.59836        6.71200
C          7.80587        3.16136        5.22330
C          8.24601        3.50682        3.92743
C          9.53815        3.18883        3.54072
C         10.39211        2.51252        4.39216
C          9.94486        2.13242        5.64070
C          8.66342        2.43991        6.07620
C          7.32590        4.25462        2.98473
C          7.40525        5.76604        3.23983
C          7.63287        3.99427        1.50722
C          8.23209        1.96086        7.44394
C          9.12375        2.53891        8.54634
C          8.25885        0.43039        7.51893
C          5.63147        0.84713        1.88250
C          6.74286       -0.05160        1.34052
C          7.78375        0.01856        2.45444
C          6.89659        0.08551        3.68998
C          2.39872       -0.43942        3.24746
C          1.08763       -1.13497        3.63678
C          0.07051        0.01764        3.69763
C          0.90211        1.24683        3.30924
C          0.40770        3.09024        6.62015
C         -0.42714        4.34478        6.87276
C          0.62101        5.44863        6.77188
C          1.51068        4.90587        5.66184
C          3.19586        3.54148        1.75997
C          2.08407        4.55167        1.46524
C          2.61993        5.83873        2.11442
C          3.84737        5.35583        2.90728
C          4.66722        0.20236        6.70556
C          3.38359       -2.63587        6.40464
C          3.54161       -1.38746        9.20901
C          1.58618       -0.19324        7.14631
H          4.27978        8.36698        4.58459
H          3.51117        8.89647        6.07571
H          6.54274        8.55626        5.80886
H          6.76252        7.72592        7.35025
H          6.89366        6.31646        2.45174
H          8.44473        6.08915        3.24729
H          6.80640        4.34183        0.88817
H          7.79028        2.93725        1.30991
H          8.71101        2.29892        9.52373
H          9.20291        3.61842        8.46066
H          7.90684        0.10251        8.49441
H          9.26904        0.05473        7.37929
H          2.48094        5.18678       10.65717
H          4.63634        0.49219        1.59991
H          2.60262        7.60436       10.33349
H          7.11879        0.29717        0.38202
H          3.69575        8.51846        8.33791
H          8.44773       -0.84108        2.47105
H          7.37846        0.59144        4.52808
H          3.34470        2.72392        8.10358
H          2.54628       -0.49459        2.15906
H          5.60039        2.78434        9.05595
H          4.64288        1.58655        9.92389
H          4.96071        3.15760       10.66239
H          0.81188       -1.88803        2.90255
H          2.12800        1.71497        9.89315
H          1.36366        3.29227        9.66462
H          2.46746        3.02081       11.01453
H         -0.33171        0.12243        4.70360
H          0.63669        2.15481        3.84788
H         -0.15320        2.32100        6.08191
H         -1.18391        4.46770        6.09700
H          1.18952        5.53055        7.69819
H          2.53453        5.27567        5.72252
H          3.98226        3.61310        0.99478
H          1.90840        4.66135        0.39837
H          1.87767        6.29642        2.76508
H          3.92242        5.77423        3.90902
H          5.24432        0.54780        7.56893
H          4.25730       -3.20887        6.69779
H          3.43380       -2.50049        5.32858
H          2.77739       -2.07855        9.55055
H          3.47559       -0.49978        9.83042
H          0.81724       -0.95248        7.04057
H          1.54823        0.45732        6.27456
H          5.31190        6.45689        5.70094
H          2.97708        7.41122        5.30610
H          5.64437        9.07784        7.23117
H          6.14982        4.93109        9.22611
H          7.80232        6.20190       10.47183
H          9.80279        7.10946        9.33702
H         10.11001        6.70647        6.91706
H          8.46162        5.44129        5.66078
H          9.89600        3.47990        2.56594
H         11.39850        2.28085        4.07939
H         10.60999        1.59145        6.29538
H          6.30253        3.91163        3.20004
H          6.94976        6.02928        4.19035
H          8.52186        4.53721        1.19532
H          7.20192        2.28880        7.61901
H         10.12464        2.11939        8.48895
H          7.62110       -0.00971        6.75633
H          5.75222        1.87755        1.53464
H          6.38471       -1.07467        1.22414
H          8.38200        0.92621        2.37773
H          6.57958       -0.92209        3.99212
H          3.27620       -0.83723        3.75703
H          1.18623       -1.61587        4.60681
H         -0.76009       -0.12569        3.01066
H          0.81593        1.42761        2.22769
H          0.77685        2.66789        7.55779
H         -0.92209        4.31485        7.83952
H          0.19828        6.41937        6.52721
H          1.08210        5.13502        4.67611
H          2.85781        2.51101        1.83528
H          1.15477        4.23609        1.93874
H          2.91032        6.57550        1.36874
H          4.76136        5.58995        2.34964
H          5.36245       -0.40423        6.11662
H          2.51281       -3.24761        6.61799
H          4.50569       -1.84766        9.39995
H          1.32208        0.39933        8.01622
