88
CSD_code = NAJSIA | q = 0 | S = 0 | Stoichiometry = C40H43ClO2SiZr | MND = 12
Zr        -2.50518       -1.94782        6.37343
Si        -4.74651       -0.22489        8.16448
Cl        -0.35407       -1.56960        7.25520
O         -2.04837       -3.19800        5.05330
O         -4.50162       -1.59684        2.08114
C         -3.81266        0.14120        6.56579
C         -2.48105        0.61653        6.49686
C         -1.95580        0.35610        5.21434
C         -2.95262       -0.34520        4.48652
C         -4.09145       -0.48392        5.31608
C         -4.19607       -2.02622        8.19079
C         -2.97833       -2.52413        8.72863
C         -2.69805       -3.78182        8.14080
C         -3.73292       -4.04764        7.20883
C         -4.62888       -2.96546        7.21524
C         -2.60819       -3.55949        2.78203
C         -1.66795       -3.36743        3.79213
C         -0.28628       -3.40825        3.47537
C          0.12745       -3.56511        2.18625
C         -0.39377       -3.86660       -0.20295
C         -1.30892       -4.05275       -1.20081
C         -2.67752       -4.10399       -0.89633
C         -3.10874       -3.95220        0.39131
C         -0.80411       -3.70972        1.13591
C         -2.19175       -3.73149        1.44189
C         -4.03416       -3.64183        3.17540
C         -4.93382       -2.64889        2.83523
C         -6.27217       -2.71835        3.26509
C         -6.70900       -3.77101        4.01763
C         -6.27442       -5.94959        5.08356
C         -5.42516       -6.98619        5.34970
C         -4.09990       -6.94554        4.88701
C         -3.63992       -5.86315        4.18961
C         -5.83708       -4.82692        4.34986
C         -4.48654       -4.76575        3.91370
C         -4.06150        0.77243        9.63758
C         -6.63405       -0.00961        7.99612
C         -0.67046        0.89474        4.61916
C          0.13647       -0.25417        4.00416
C         -1.03075        1.90971        3.52233
C          0.18423        1.59107        5.68241
C         -1.60306       -4.77043        8.48939
C         -0.67961       -4.21929        9.58004
C         -0.77672       -5.07189        7.22858
C         -2.25144       -6.06924        8.99500
H         -5.22934       -0.98207        1.92948
H         -1.99555        1.18926        7.27609
H         -2.90666       -0.58515        3.43129
H         -5.06269       -0.85582        5.00679
H         -2.43137       -2.06570        9.54500
H         -3.87454       -4.97383        6.67271
H         -5.57178       -2.93134        6.68163
H          0.41842       -3.32033        4.29244
H          1.18203       -3.58873        1.95200
H          0.66387       -3.83958       -0.42463
H         -0.98633       -4.17044       -2.22493
H         -3.39067       -4.26888       -1.69118
H         -4.16240       -4.00265        0.62133
H         -6.95075       -1.91959        2.99099
H         -7.73547       -3.81303        4.35235
H         -7.29997       -5.97840        5.42296
H         -5.76754       -7.84476        5.90810
H         -3.44362       -7.78028        5.08677
H         -2.62207       -5.83850        3.82938
H         -4.52990        0.46074       10.56464
H         -2.98917        0.64167        9.74623
H         -4.25644        1.83168        9.51088
H         -7.14123       -0.35313        8.89085
H         -6.89136        1.03374        7.84930
H         -7.03014       -0.57003        7.15601
H          0.39161       -0.97860        4.77812
H         -0.43050       -0.75348        3.21995
H          1.06003        0.12270        3.56833
H         -1.63401        2.71488        3.93588
H         -0.12644        2.33814        3.09539
H         -1.59482        1.43222        2.72505
H          0.42565        0.90200        6.48862
H          1.11468        1.93854        5.23822
H         -0.33693        2.45277        6.09333
H         -1.23769       -4.02889       10.49431
H          0.10166       -4.94284        9.80391
H         -0.20611       -3.29613        9.25296
H         -0.28714       -4.16210        6.87270
H         -0.01006       -5.81335        7.44936
H         -1.41341       -5.45871        6.43281
H         -2.87770       -5.86508        9.86056
H         -2.87096       -6.51856        8.22315
H         -1.48516       -6.78602        9.28308
