50
CSD_code = NAJVID | q = 0 | S = 0 | Stoichiometry = C15H21MnNO9PSSi | MND = 7
Mn         3.36131        2.26897        1.62953
C          2.49669        1.29704        0.40043
C          4.88032        1.34075        1.51332
C          2.94728        1.43658        3.15401
O          1.91263        0.72539       -0.40883
O          5.88440        0.77156        1.47043
O          2.69708        0.97582        4.17521
S          1.72864        4.01178        1.93979
C          3.36108        4.09284        2.63316
C          4.28524        4.13232        1.60328
C          3.72104        3.87128        0.32608
C          2.32764        4.42799        0.26923
Si         3.56040        4.39766        4.48195
O          1.99763        4.06794        4.86652
O          4.74824        3.29130        4.73132
O          4.01288        5.98315        4.51408
C          1.43712        4.16407        6.13930
C          2.52730        3.94233        7.19720
C          5.15099        2.80899        5.97767
C          4.96490        3.90727        7.03562
C          4.46674        6.62245        5.66859
C          3.76441        6.03317        6.89734
N          3.73009        4.59788        6.73168
P          2.25328        6.25362        0.06230
O          2.68024        6.33907       -1.48684
O          3.53736        6.85406        0.83120
O          1.00832        6.94466        0.40939
C          2.46217        7.55654       -2.18135
C          3.36426        7.76601        1.90535
H          5.34277        4.29084        1.78724
H          4.32205        4.01478       -0.56912
H          1.66711        3.98043       -0.47532
H          0.65436        3.40631        6.22666
H          0.97940        5.15504        6.25098
H          2.73008        2.87272        7.26255
H          2.19875        4.30600        8.17809
H          6.19902        2.50794        5.90724
H          4.54817        1.92616        6.22061
H          4.97145        3.48106        8.04520
H          5.78733        4.61876        6.94945
H          4.25315        7.69090        5.57635
H          5.55254        6.48712        5.74323
H          4.27081        6.34429        7.81913
H          2.73766        6.40076        6.91671
H          2.35347        7.30626       -3.23622
H          3.31152        8.22932       -2.04668
H          1.55374        8.04176       -1.81729
H          4.01651        8.62119        1.72398
H          3.64116        7.27239        2.83706
H          2.32480        8.09707        1.95201
