54
CSD_code = NAPJET | q = 0 | S = 0 | Stoichiometry = C20H25O5PSi2W | MND = 6
W          9.90229        0.00053        8.57009
P          8.99241        2.24219        9.03534
Si         6.54267        3.90298        7.91853
Si         9.72158        4.45238        7.08920
O          9.47923       -0.59621       11.62592
O         12.83068        0.88092        9.29082
O         10.23376        0.70846        5.52836
O          6.98874       -0.96373        7.90318
O         10.95344       -2.89232        8.01331
C          9.63703       -0.40232       10.51085
C         11.76476        0.58244        9.01028
C         10.13356        0.45493        6.63984
C          8.04513       -0.60074        8.14867
C         10.57291       -1.83302        8.21578
C          8.18452        2.63814       10.61521
C          9.32329        3.31101       10.45280
H          9.99745        3.95935       10.97400
C          7.13194        2.32288       11.53452
C          6.43997        1.11815       11.40739
H          6.71272        0.43615       10.61240
C          5.44280        0.79001       12.30441
H          4.91696       -0.14783       12.20537
C          5.11567        1.66521       13.32826
H          4.33077        1.41143       14.02491
C          5.79846        2.86457       13.46190
H          5.54539        3.54269       14.26363
C          6.80554        3.19393       12.57611
H          7.34372        4.12491       12.67589
C          8.32814        3.24714        7.65451
H          8.24248        2.50500        6.85156
C          6.34769        5.04066        9.43935
H          7.29343        5.45784        9.76567
H          5.91854        4.50392       10.27934
H          5.68413        5.86843        9.20931
C          5.41997        2.37151        8.08760
H          5.82516        1.66847        8.80910
H          5.32142        1.84716        7.14142
H          4.42148        2.64053        8.41859
C          6.02618        4.87556        6.36158
H          6.58051        5.80279        6.26259
H          4.97204        5.12841        6.40866
H          6.18243        4.29788        5.45671
C         11.42857        3.70853        7.49964
H         11.58253        2.76411        6.98391
H         11.53313        3.51955        8.56521
H         12.23430        4.37471        7.20492
C          9.60075        4.68535        5.20223
H          9.70541        3.73978        4.67944
H         10.38800        5.34262        4.84837
H          8.65273        5.12159        4.90861
C          9.55424        6.12839        7.98385
H          8.59541        6.59447        7.78458
H         10.32782        6.81201        7.64942
H          9.65470        6.02367        9.05938
