66
CSD_code = NAQWAF | q = 0 | S = 0 | Stoichiometry = C31H30MoO3Si | MND = 9
C         -1.01021        5.24112       19.71731
C         -1.96220        4.65975       18.82163
C         -1.98268        3.25615       19.05021
C         -1.06460        2.96764       20.11060
C         -0.47826        4.19265       20.52890
C         -0.34276        6.57337       19.53294
H         -0.88625        7.18485       18.81743
H          0.66269        6.40864       19.13661
H         -0.24836        7.12786       20.46464
C         -2.59285        5.36189       17.65245
H         -3.45303        4.80687       17.28171
H         -1.86937        5.44877       16.83768
H         -2.93174        6.36167       17.92189
C         -2.65329        2.23216       18.18251
H         -3.59002        2.60968       17.77467
H         -2.87040        1.32322       18.74131
H         -1.99985        1.96857       17.34724
C         -0.60933        1.60088       20.52850
H         -0.26142        1.60211       21.56058
H          0.21713        1.27581       19.89167
H         -1.41110        0.86938       20.44076
C          0.73381        4.32006       21.40606
H          0.84755        5.33978       21.76822
H          1.62736        4.05935       20.83247
H          0.68026        3.65180       22.26494
C         -4.62208        4.60082       20.50554
C         -2.69081        4.10980       22.88323
C         -3.78167        2.70855       21.50725
C         -1.78028        7.57471       22.41941
C         -1.61521        8.92620       22.13307
H         -2.36656        9.43928       21.55175
C         -0.51172        9.62645       22.58911
H         -0.40385       10.67534       22.35192
C          0.45038        8.98686       23.35194
H          1.31380        9.53042       23.70715
C          0.29156        7.64746       23.66673
H          1.02931        7.14431       24.27592
C         -0.81324        6.95451       23.20492
H         -0.93505        5.91318       23.46877
C         -4.29743        7.66976       20.60916
C         -5.68314        7.75836       20.71478
H         -6.18197        7.25997       21.53291
C         -6.42939        8.47688       19.79882
H         -7.50355        8.52925       19.90284
C         -5.80340        9.12883       18.74998
H         -6.38382        9.69004       18.03201
C         -4.42608        9.06071       18.63120
H         -3.92661        9.57303       17.82019
C         -3.68776        8.33731       19.55103
H         -2.61242        8.30581       19.45567
C         -4.41060        6.62618       23.42876
C         -5.35017        5.63001       23.67948
H         -5.46456        4.81126       22.97701
C         -6.14314        5.65908       24.81250
H         -6.86487        4.87335       24.98400
C         -6.01017        6.69047       25.72668
H         -6.62592        6.71267       26.61416
C         -5.08222        7.69086       25.49544
H         -4.97025        8.49946       26.20378
C         -4.29564        7.65604       24.35807
H         -3.57205        8.44046       24.18835
O         -5.71165        4.71083       20.15751
O         -2.62423        3.90289       24.01300
O         -4.39349        1.79495       21.84192
Si        -3.32232        6.60067       21.85553
Mo        -2.76723        4.24991       20.94780
