44
CSD_code = NAXSAH | q = 0 | S = 0 | Stoichiometry = C15H23Cl2NSSiTi | MND = 8
Ti         1.61348        4.27728        3.36454
Cl         2.47975        2.53654        4.33286
Cl         0.03033        4.75688        4.76898
S         -1.82689        3.47703        2.04390
Si         2.80616        6.41099        1.88150
N          2.84619        5.66580        3.45425
C         -0.11680        3.62922        1.77228
C          0.99778        2.78705        1.57831
C          2.09469        3.64507        1.27486
C          1.66965        5.01489        1.26576
C          0.27830        4.99007        1.60527
C         -0.83446        5.87340        1.72479
H         -0.77890        6.94388        1.62594
C         -1.98975        5.20862        1.95941
H         -2.96841        5.62441        2.10151
C          0.98704        1.28870        1.54851
H          1.12100        0.93076        0.52495
H          0.03340        0.91548        1.92013
H          1.78905        0.87512        2.16277
C          3.47589        3.16033        0.93289
H          3.92453        3.80822        0.18225
H          3.43260        2.14644        0.53665
H          4.11909        3.15277        1.81879
C          4.45148        6.56577        0.91152
H          4.95444        7.49275        1.16525
H          4.26687        6.58394       -0.15749
H          5.13652        5.75063        1.11837
C          1.92657        8.11119        1.84995
H          2.62679        8.91765        2.04029
H          1.14714        8.16155        2.60564
H          1.47325        8.29779        0.88191
C          3.71809        5.97828        4.57166
C          2.99765        5.68424        5.89889
H          2.07945        6.27143        5.95896
H          3.63839        5.95074        6.73737
H          2.74880        4.62174        5.97732
C          4.11753        7.45931        4.55766
H          3.22660        8.08090        4.58805
H          4.67848        7.69155        3.65707
H          4.73622        7.68750        5.42189
C          4.98126        5.10476        4.46984
H          5.52832        5.35062        3.56220
H          4.69719        4.05158        4.43924
H          5.62877        5.27076        5.32723
