123
CSD_code = NAXTIS | q = 0 | S = 0 | Stoichiometry = C49H68N2OPScSi | MND = 5
Sc         3.10194        1.16372       14.52850
P          4.36440       -1.13109       15.29786
Si         2.66387       -2.14494       12.85313
O          5.04901        2.39473       14.71591
N          2.18634        2.64480       13.32294
N          2.28334        2.03992       16.32355
C          1.67173        4.99687       12.89258
H          2.31898        4.95106       12.01812
H          1.80438        5.95522       13.38790
H          0.64314        4.93164       12.53905
C          1.96941        3.84690       13.83185
C          1.94474        4.15039       15.19661
H          1.74990        5.19121       15.41999
C          1.97679        3.32314       16.32990
C          1.58079        4.02677       17.61273
H          0.52411        4.28891       17.56875
H          2.14270        4.95298       17.72318
H          1.74328        3.40081       18.48637
C          1.88375        2.45511       11.94581
C          2.88740        2.46238       10.96865
C          2.53956        2.26425        9.63915
H          3.30908        2.25934        8.88233
C          1.22554        2.07075        9.26740
H          0.97003        1.92125        8.22912
C          0.23821        2.05049       10.23468
H         -0.78348        1.87444        9.93856
C          0.54396        2.24750       11.57145
C         -0.52518        2.12474       12.63373
H         -0.24446        2.73956       13.49616
C         -1.90946        2.57987       12.17204
H         -1.85910        3.55775       11.69703
H         -2.57686        2.64892       13.02890
H         -2.34364        1.87320       11.46958
C         -0.56014        0.66149       13.08578
H         -0.75665        0.01049       12.23668
H         -1.34113        0.51356       13.82718
H          0.40838        0.37719       13.52080
C          4.34338        2.62230       11.33947
H          4.40006        2.88201       12.40260
C          5.05168        1.27972       11.13986
H          4.60861        0.53735       11.81322
H          6.11687        1.37029       11.34916
H          4.93456        0.93467       10.11559
C          5.02760        3.73516       10.54215
H          5.07558        3.48805        9.48509
H          6.04610        3.88037       10.89866
H          4.49002        4.67613       10.64756
C          2.13018        1.30323       17.53205
C          0.87475        0.76742       17.86379
C          0.72451        0.09065       19.06610
H         -0.24069       -0.31377       19.33103
C          1.78511       -0.06781       19.93523
H          1.64792       -0.58361       20.87376
C          3.02692        0.42664       19.58856
H          3.85571        0.28828       20.26510
C          3.22263        1.10505       18.39452
C          4.59899        1.62541       18.04412
H          4.59396        1.86602       16.97293
C          4.92025        2.89596       18.83755
H          4.87072        2.69563       19.90607
H          4.21433        3.69041       18.60752
H          5.92444        3.24670       18.60336
C          5.67922        0.56869       18.28137
H          6.63299        0.90498       17.87727
H          5.40363       -0.36191       17.78659
H          5.81802        0.37131       19.34110
C         -0.30486        0.86937       16.92349
H          0.00380        1.42280       16.02759
C         -1.47393        1.61587       17.57066
H         -1.87215        1.05718       18.41409
H         -2.27458        1.75624       16.84716
H         -1.15814        2.59310       17.92882
C         -0.73773       -0.53414       16.48977
H         -0.99434       -1.14514       17.35154
H          0.06611       -1.02731       15.94606
H         -1.61219       -0.47995       15.84508
C          3.51575       -0.76597       13.77781
C          1.06488       -2.89459       13.62695
H          0.68156       -3.70835       13.01796
H          0.27589       -2.15403       13.71893
H          1.26259       -3.29225       14.61812
C          3.70945       -3.69907       12.40859
H          3.63057       -4.45019       13.18820
H          4.76200       -3.46275       12.28799
H          3.36433       -4.14768       11.48098
C          2.13303       -1.38195       11.16922
H          2.94177       -1.41655       10.44703
H          1.83571       -0.34254       11.27743
H          1.29601       -1.92564       10.74469
C          6.02538       -1.80120       14.84261
C          6.87702       -2.30398       15.82374
H          6.51150       -2.41960       16.83648
C          8.16658       -2.68169       15.50327
H          8.81673       -3.08576       16.26714
C          8.62932       -2.54519       14.20317
H          9.63798       -2.84306       13.95428
C          7.79454       -2.02681       13.22632
H          8.15236       -1.92289       12.21079
C          6.50503       -1.64630       13.54781
H          5.83332       -1.24116       12.80141
C          3.68889       -2.63366       16.11335
C          2.60667       -2.42297       16.96395
H          2.28370       -1.40546       17.15091
C          1.95863       -3.48443       17.56342
H          1.12362       -3.30358       18.22612
C          2.38346       -4.78008       17.31355
H          1.87848       -5.61599       17.77635
C          3.45874       -4.99979       16.46767
H          3.79012       -6.01046       16.27152
C          4.11112       -3.93687       15.87050
H          4.95287       -4.11559       15.21734
C          6.33257        1.74229       14.66228
H          6.52706        1.44151       13.62697
H          6.29615        0.84171       15.28262
C          7.36059        2.76174       15.13881
H          8.34306        2.58013       14.71129
H          7.44091        2.74759       16.22628
C          6.72897        4.06959       14.67326
H          7.09302        4.94068       15.21227
H          6.90043        4.21468       13.60617
C          5.25326        3.79876       14.94413
H          5.00180        4.03162       15.98768
H          4.58516        4.36372       14.28874
