58
CSD_code = NAZJON | q = 0 | S = 0 | Stoichiometry = C24H30HfN2Si | MND = 12
Hf        -1.18190        3.48557        2.53227
Si        -1.18190        0.19348        2.53226
N          0.25075        4.78114        3.03665
C         -0.54604        1.47905        1.31075
C         -1.40242        2.19787        0.42823
C         -0.72874        3.30985       -0.10595
C          0.58849        3.30685        0.41978
C          1.72503        4.07803        0.13122
C          2.91156        3.78387        0.75511
C          3.00458        2.73153        1.67889
C          1.91970        1.94317        1.97411
C          0.69025        2.19872        1.34039
C          0.14679       -0.93255        3.30794
C          0.41019        6.01327        2.28466
C          1.24477        4.72584        4.08947
H         -2.36171        1.82833        0.08396
H         -1.08315        3.94353       -0.90545
H          1.66401        4.87914       -0.59288
H          3.79631        4.36277        0.53154
H          3.95656        2.53294        2.15042
H          2.02107        1.10523        2.65001
H         -0.32479       -1.75786        3.83067
H          0.77371       -0.41141        4.02276
H          0.79085       -1.35243        2.54267
H          0.23408        6.89817        2.91902
H         -0.29100        6.03460        1.44645
H          1.43302        6.10191        1.88808
H          1.09363        5.53087        4.82915
H          2.25726        4.85063        3.67554
H          1.21303        3.76948        4.61140
N         -2.61454        4.78113        2.02789
C         -2.77398        6.01326        2.77987
H         -2.59787        6.89817        2.14551
H         -2.07280        6.03459        3.61808
H         -3.79682        6.10191        3.17644
C         -3.60856        4.72584        0.97506
H         -3.45742        5.53087        0.23538
H         -4.62105        4.85063        1.38899
H         -3.57682        3.76948        0.45313
C         -1.81775        1.47905        3.75378
C         -0.96137        2.19787        4.63630
C         -3.05404        2.19872        3.72414
C         -1.63506        3.30985        5.17048
H         -0.00208        1.82833        4.98057
C         -2.95229        3.30684        4.64475
C         -4.08882        4.07802        4.93331
C         -5.27535        3.78387        4.30943
C         -5.36838        2.73153        3.38564
C         -4.28349        1.94317        3.09042
H         -4.38486        1.10523        2.41452
H         -6.32035        2.53293        2.91411
H         -6.16010        4.36277        4.53300
H         -4.02780        4.87914        5.65742
H         -1.28064        3.94353        5.96999
C         -2.51058       -0.93254        1.75659
H         -2.03900       -1.75785        1.23385
H         -3.13751       -0.41141        1.04178
H         -3.15464       -1.35243        2.52186
