58
CSD_code = NAZJUT | q = 0 | S = 0 | Stoichiometry = C24H30HfN2Si | MND = 10
Hf         5.33719        4.22526       10.93891
N          4.77274        3.61235        9.12872
N          4.77657        2.66637       12.02782
Si         7.24400        6.97651       10.68995
C          5.53279        6.60516       11.38177
C          4.36260        6.47726       10.58773
C          3.34495        5.82757       11.30615
C          3.84322        5.57171       12.61332
C          5.21874        6.01769       12.65031
C          3.21999        5.13477       13.79404
C          3.94193        5.10084       14.96151
C          5.29125        5.48773       14.99158
C          5.92985        5.93913       13.86209
C          7.12935        8.12788        9.17511
C          8.45887        7.72837       11.95632
C          7.70348        5.21088       10.19279
C          7.54482        4.10306       11.13824
C          7.85742        2.90310       10.39418
C          8.10439        3.27946        9.03991
C          7.99554        4.69426        8.95020
C          7.95811        1.56073       10.76916
C          8.27969        0.62309        9.81207
C          8.50765        0.99172        8.48228
C          8.42372        2.30740        8.08805
C          4.84840        2.19311        8.82276
C          4.94166        4.37892        7.91037
C          3.38201        2.27761       11.94466
C          5.33978        2.28308       13.30510
H          4.22230        6.95679        9.62738
H          2.31371        5.73039       10.99662
H          2.17083        4.86906       13.78588
H          3.46736        4.78589       15.87971
H          5.82532        5.44625       15.92978
H          6.95225        6.28762       13.91693
H          8.11596        8.30355        8.76125
H          6.71249        9.09057        9.45104
H          6.51277        7.71110        8.38584
H          9.29432        8.19141       11.44193
H          8.86813        6.98044       12.62759
H          7.97806        8.49272       12.55817
H          7.81333        4.21622       12.19047
H          8.14997        5.26903        8.05306
H          7.80108        1.26197       11.79667
H          8.36650       -0.41776       10.08899
H          8.76003        0.22786        7.76069
H          8.61034        2.59070        7.06116
H          4.87289        1.61352        9.74752
H          5.75084        1.95286        8.24038
H          3.98004        1.87607        8.22400
H          4.99596        5.44793        8.12641
H          4.09382        4.21109        7.22667
H          5.85633        4.08675        7.36968
H          2.94782        2.65468       11.01250
H          2.79897        2.66544       12.79693
H          3.27666        1.18108       11.95968
H          6.37361        2.62633       13.38303
H          5.33578        1.18788       13.41731
H          4.76771        2.69809       14.15123
