92
CSD_code = NEBDAZ | q = 0 | S = 0 | Stoichiometry = C32H51ClN5Si2Ta | MND = 6
Ta         4.96676        1.74675       11.62711
N          6.19835        0.48694       12.05642
N          3.83528        1.89462       13.31177
N          5.91827        3.53780       11.99906
N          3.33093        3.54308       10.76227
N          3.00797        0.05673       10.98425
Cl         5.29102        1.60325        9.33175
Si         3.38990        0.71775       14.50254
Si         7.11462        4.23150       10.96594
C          7.27299       -0.24499       12.38536
C          7.95122       -0.02838       13.61509
C          9.08859       -0.75853       13.90368
C          9.57021       -1.72205       13.03423
C          8.90458       -1.95604       11.84499
C          7.77295       -1.23863       11.50424
C          7.44239        1.02644       14.56894
C          7.42986        0.53501       16.01759
C          8.29150        2.29454       14.43828
C          7.07556       -1.49007       10.18808
C          7.98529       -1.12646        9.01309
C          6.60659       -2.94387       10.07850
C          2.96473        3.63812        9.49014
C          2.61410        4.83345        8.89184
C          2.67689        5.98646        9.65911
C          3.05794        5.88933       10.98508
C          3.36862        4.64053       11.51985
C          3.75969        4.41666       12.95358
C          3.07930        3.11680       13.46657
C          5.31084        4.29779       13.05072
C          3.31594        5.57095       13.86037
C          1.48737        0.41414       14.48205
C          4.21541       -0.96539       14.19491
C          3.80141        1.38301       16.25831
C          6.35762        5.06054        9.40288
C          8.32575        2.85248       10.43867
C          8.07286        5.61415       11.88207
C          1.76059        0.46897       10.80211
C          0.71232       -0.39279       10.52187
C          0.97789       -1.75004       10.42798
C          2.28021       -2.18266       10.62086
C          3.26125       -1.24347       10.89823
H          9.61880       -0.57743       14.82697
H         10.45877       -2.28419       13.28198
H          9.28215       -2.70796       11.16708
H          6.41567        1.27006       14.27331
H          6.94142        1.26687       16.65664
H          8.43917        0.38590       16.39356
H          6.88873       -0.40432       16.09310
H          7.95913        3.04935       15.14906
H          9.33947        2.07429       14.63320
H          8.19717        2.69586       13.43245
H          6.20242       -0.83070       10.14559
H          7.45476       -1.26293        8.07319
H          8.87866       -1.74699        9.00309
H          8.28582       -0.08507        9.08930
H          5.98823       -3.07485        9.19229
H          7.45619       -3.61852       10.00304
H          6.02814       -3.22746       10.95601
H          2.96708        2.71146        8.93182
H          2.31533        4.86100        7.85637
H          2.43186        6.94787        9.23161
H          3.11106        6.77770       11.59160
H          2.86266        3.27501       14.52831
H          2.09901        3.02569       12.96594
H          5.52463        3.81346       14.01585
H          5.72268        5.31040       13.08091
H          3.59225        5.34965       14.88891
H          2.23622        5.70486       13.81454
H          3.80020        6.50527       13.58624
H          1.20416       -0.29829       15.24998
H          0.93404        1.32932       14.66983
H          1.15116        0.01696       13.52797
H          4.51811       -1.41838       15.13153
H          5.09383       -0.86093       13.57194
H          3.53241       -1.65316       13.70810
H          4.02922        0.57054       16.93978
H          4.65993        2.04664       16.24087
H          2.96596        1.93234       16.68291
H          7.13910        5.46666        8.76805
H          5.68324        5.87612        9.65380
H          5.80169        4.33760        8.81263
H          9.36000        3.13063       10.61336
H          8.12598        1.93014       10.97764
H          8.21751        2.64302        9.37965
H          8.94629        5.90012       11.30728
H          8.41122        5.29569       12.86177
H          7.46817        6.50621       12.01012
H          1.59320        1.53473       10.88494
H         -0.28634       -0.00926       10.38116
H          0.18706       -2.45235       10.20961
H          2.53415       -3.22887       10.55758
H          4.29003       -1.53023       11.05826
