33
CSD_code = NEDKOZ | q = 0 | S = 0 | Stoichiometry = C11H12Cl2FeN2O4Si | MND = 5
Fe         2.53472        1.65773        5.96487
Si         3.54777        2.94582        4.36132
Cl         2.35869        4.28785        3.22518
Cl         5.15508        4.17335        4.97830
O          1.31446       -0.11862        7.90496
O          5.03718        0.19791        6.47099
O          0.39732        0.80595        4.13066
O          1.93294        3.98709        7.67404
N          4.72424        1.00205        2.40929
N          5.28196        3.02029        1.91146
C          4.55161        2.28442        2.76196
C          5.58203        0.92079        1.33930
C          5.93757        2.20182        1.02733
C          4.12679       -0.16783        2.98985
H          3.40580        0.11845        3.75511
H          4.89516       -0.79238        3.44821
H          3.62008       -0.74404        2.21506
C          5.40575        4.45197        1.87446
H          4.53021        4.91028        2.32387
H          5.48916        4.77869        0.83958
H          6.29053        4.76828        2.42798
C          5.97077       -0.37318        0.72761
H          6.69432       -0.21050       -0.06505
H          5.10268       -0.87690        0.30315
H          6.41295       -1.03317        1.47273
C          6.84510        2.72022       -0.02612
H          7.34013        1.89570       -0.52986
H          7.60409        3.36869        0.40839
H          6.29128        3.29197       -0.77072
C          1.79629        0.59234        7.14099
C          4.07186        0.79918        6.26567
C          1.24712        1.16909        4.82205
C          2.18695        3.10941        6.97926
