109
CSD_code = NEJXIK | q = 0 | S = 0 | Stoichiometry = C43H58ClN5RuSi | MND = 6
Ru        14.17085        8.14506        6.72120
Cl        16.38050        7.55942        7.43412
Si        14.87736       10.37328        6.35440
N         13.51994        8.01196        8.67333
N         13.87747        6.30479        6.85901
N         14.60595        7.56598        4.81918
N         14.22316       11.51998        5.20438
N         16.43765       11.14542        6.17485
C         13.31906        6.78232        9.05493
C         13.55841        5.76980        8.05664
C         13.50309        4.38601        8.22906
H         13.24755        3.96812        9.18910
C         13.80446        3.56263        7.15417
H         13.76947        2.49006        7.26860
C         14.17581        4.12021        5.94124
H         14.44734        3.49573        5.10575
C         14.21376        5.51095        5.81861
C         14.58726        6.27279        4.65625
C         13.24824        9.08179        9.55702
C         14.23925        9.54671       10.43127
C         13.96976       10.65178       11.22316
H         14.74004       11.01568       11.88809
C         12.73940       11.29072       11.19259
C         11.75007       10.77236       10.37188
H         10.77129       11.23036       10.36493
C         11.97673        9.66956        9.56302
C         15.54976        8.83270       10.55086
H         15.42227        7.90718       11.11480
H         16.27806        9.44790       11.07330
H         15.94476        8.56548        9.57195
C         12.48888       12.50896       12.02807
H         12.82095       13.39835       11.49174
H         13.03883       12.45754       12.96510
H         11.42942       12.62137       12.24559
C         10.86255        9.09261        8.74351
H         11.21434        8.84055        7.74322
H         10.03776        9.79630        8.66731
H         10.49065        8.17657        9.20469
C         12.84851        6.39505       10.42488
H         12.64468        7.27690       11.02754
H         13.60922        5.79481       10.92386
H         11.94176        5.79511       10.35239
C         14.90887        5.58969        3.36151
H         14.07453        4.96384        3.04578
H         15.78158        4.94923        3.48874
H         15.12005        6.32127        2.58500
C         14.81428        8.43144        3.72009
C         16.08743        8.94468        3.43831
C         16.22346        9.87915        2.42530
H         17.20232       10.28748        2.21959
C         15.14141       10.30106        1.66688
C         13.90069        9.74349        1.92779
H         13.04850       10.03593        1.33004
C         13.71735        8.80781        2.93467
C         17.29878        8.45238        4.16630
H         17.08297        8.23968        5.21008
H         18.09790        9.18714        4.11574
H         17.65736        7.52865        3.70783
C         15.33270       11.31012        0.57673
H         14.37982       11.60052        0.14154
H         15.96226       10.89969       -0.21248
H         15.82567       12.19603        0.97233
C         12.36781        8.19215        3.15190
H         11.59355        8.79155        2.68009
H         12.15148        8.10493        4.21654
H         12.33432        7.19036        2.72137
C         15.18273       12.31219        4.61591
C         15.03010       13.20931        3.56972
H         14.06330       13.38605        3.12767
C         16.13856       13.87186        3.06950
H         16.01703       14.57443        2.25759
C         17.39769       13.63335        3.59346
H         18.25810       14.14153        3.18367
C         17.56612       12.74035        4.63827
H         18.55674       12.55295        5.01973
C         16.46266       12.08830        5.16668
C         12.82880       11.61994        4.86407
H         12.39418       10.63021        5.01963
H         12.72535       11.86950        3.80521
C         12.01890       12.62785        5.71400
C         12.40808       14.07158        5.39428
H         11.85493       14.75689        6.03350
H         12.17876       14.31627        4.35962
H         13.47032       14.22878        5.56108
C         12.24333       12.36424        7.20178
H         13.25505       12.63173        7.49412
H         12.09274       11.31389        7.43121
H         11.55101       12.95505        7.79724
C         10.53871       12.41642        5.38301
H          9.92316       13.13351        5.92114
H         10.22703       11.41394        5.66568
H         10.35939       12.54460        4.31766
C         17.59090       10.87171        6.99852
H         18.49821       10.89246        6.38932
H         17.47407        9.85639        7.38169
C         17.76975       11.82058        8.21012
C         18.36402       13.16747        7.79265
H         17.71214       13.67697        7.08795
H         19.34146       13.03542        7.33333
H         18.48723       13.80502        8.66627
C         16.42894       12.06665        8.90008
H         15.77957       12.67248        8.27259
H         16.58209       12.59469        9.83880
H         15.92338       11.12895        9.10819
C         18.72911       11.13259        9.18561
H         18.91478       11.76696       10.04975
H         19.68182       10.92532        8.70300
H         18.31104       10.19035        9.52984
H         12.74582        8.51081        6.28540
