72
CSD_code = NESPUW | q = 0 | S = 0 | Stoichiometry = C23H42N3PSi2W | MND = 6
W          4.37291       -0.00003        3.03736
P          2.91474        0.00014        0.74367
Si         3.03318       -2.89336        4.33961
N          5.61078        0.00036        4.32826
N          2.88102       -1.32174        3.61964
C          6.60918        0.00002        5.22140
C          6.35942        0.00042        6.60908
C          7.39985        0.00016        7.51141
C          8.71626       -0.00046        7.07354
C          8.98250       -0.00078        5.71177
C          7.95422       -0.00052        4.79581
C          1.64636       -0.71390        3.48102
C          0.42851       -1.38443        3.37922
C         -0.76638       -0.69184        3.26868
C          1.71502       -3.21279        5.69783
C          2.88084       -4.30000        3.03064
C          4.74685       -3.02374        5.17166
C          1.79642       -1.40017        0.29800
C          3.93729        0.00011       -0.79937
C          5.38870       -1.62397        1.83650
H          5.32818        0.00097        6.93763
H          7.18818        0.00050        8.57213
H          9.52719       -0.00066        7.78670
H         10.00726       -0.00117        5.36577
H          8.14384       -0.00070        3.72958
H          0.42692       -2.46339        3.37485
H         -1.69489       -1.23707        3.18375
H          0.89846       -3.82934        5.33709
H          1.28596       -2.28273        6.05851
H          2.15468       -3.72605        6.54685
H          1.95924       -4.23863        2.45842
H          2.89354       -5.26744        3.52232
H          3.70793       -4.28466        2.32709
H          5.46748       -2.35896        4.70079
H          5.12936       -4.03716        5.11208
H          4.69817       -2.75720        6.22244
H          2.32334       -2.34350        0.42834
H          1.46843       -1.30916       -0.73675
H          0.92907       -1.39708        0.95512
H          3.29115        0.00070       -1.67634
H          4.57170        0.88247       -0.82647
H          4.69046       -2.26989        1.27803
H          5.96346       -2.32348        2.46145
H          6.11615       -1.27189        1.08632
C          1.79624        1.40043        0.29844
H          2.32289        2.34377        0.42971
H          1.46878        1.31005       -0.73654
H          0.92860        1.39663        0.95516
H          4.57084       -0.88287       -0.82703
C          1.64632        0.71368        3.48119
N          2.88098        1.32153        3.61986
C          5.38830        1.62427        1.83656
H          4.69026        2.27009        1.27770
H          5.96252        2.32384        2.46194
H          6.11640        1.27240        1.08689
Si         3.03308        2.89325        4.33968
C          1.71505        3.21276        5.69800
H          0.89863        3.82956        5.33733
H          1.28580        2.28271        6.05852
H          2.15486        3.72579        6.54709
C          2.88045        4.29954        3.03035
H          1.95870        4.23804        2.45840
H          2.89336        5.26715        3.52170
H          3.70735        4.28391        2.32658
C          4.74686        3.02436        5.17146
H          5.46701        2.35791        4.70222
H          5.13008        4.03736        5.10940
H          4.69798        2.76048        6.22291
C          0.42842        1.38414        3.37962
C         -0.76642        0.69149        3.26890
H         -1.69497        1.23669        3.18416
H          0.42671        2.46310        3.37557
