61
CSD_code = NEVQOU | q = 0 | S = 0 | Stoichiometry = C22H29O6PSi2W | MND = 6
W          3.78821       12.92171        6.33115
P          4.74263       13.90157        4.24953
Si         6.12749       15.60030        1.92048
Si         4.48677       16.83797        4.56958
O          2.74260       11.48124        8.89782
O          6.65606       13.05385        7.61290
O          4.57368       10.06016        5.29801
O          0.90762       12.66819        5.09806
O          2.84935       15.49679        7.85566
O          4.92116       11.76723        2.46264
C          5.12986       15.36382        3.53203
C          5.58631       12.54828        3.34624
C          6.86460       12.33571        3.71781
C          3.53921       12.00918        2.30455
C          3.06278       11.28039        1.05938
C          7.78761       11.30195        3.29953
C          9.04413       11.23872        3.91046
C          9.95951       10.26980        3.55229
C          9.64336        9.34254        2.57228
C          8.40363        9.39521        1.95621
C          7.48316       10.36182        2.31190
C          6.40820       14.08773        0.79516
C          5.16682       16.86624        0.85639
C          7.83069       16.27065        2.45694
C          2.59674       16.62699        4.74459
C          5.41885       16.77968        6.23519
C          4.81528       18.55012        3.80813
C          3.12397       12.01254        7.95969
C          5.61502       13.03200        7.14390
C          4.30324       11.12577        5.60355
C          1.96116       12.77454        5.53081
C          3.22806       14.62439        7.22372
H          7.25398       13.04455        4.44266
H          2.99431       11.64160        3.18859
H          3.35886       13.09367        2.21190
H          1.99778       11.44201        0.92192
H          3.25076       10.21513        1.16287
H          3.59584       11.64329        0.18425
H          9.29449       11.95807        4.67775
H         10.92394       10.23513        4.03826
H         10.35888        8.58398        2.29113
H          8.15271        8.67497        1.19073
H          6.52205       10.39635        1.82732
H          7.10212       13.37405        1.22441
H          6.82316       14.41610       -0.15418
H          5.48587       13.56016        0.57749
H          5.51714       17.87638        1.03135
H          4.10240       16.84712        1.06632
H          5.29516       16.65871       -0.20110
H          8.41697       15.49911        2.94643
H          7.73317       17.09921        3.15061
H          8.39803       16.62006        1.60035
H          2.08646       16.92863        3.83415
H          2.19981       17.23093        5.55447
H          2.33149       15.58986        4.94130
H          5.52168       15.75835        6.59585
H          4.90699       17.35323        7.00161
H          6.41835       17.19267        6.13253
H          4.19448       18.73608        2.94039
H          5.84995       18.67230        3.51040
H          4.59229       19.32109        4.53825
