103
CSD_code = NEVZAS | q = 0 | S = 0 | Stoichiometry = C40H56N2RuSi4 | MND = 8
Ru         0.00001       -0.00015       -0.00003
Si         0.75156        2.34263       -0.74884
Si        -1.44094        1.60917        1.39902
N          2.18643       -0.26062        2.18579
C          1.35378       -0.11547        1.36516
C          3.15906       -0.55734        3.08465
C          3.61649        0.43739        3.95910
C          4.60936        0.11232        4.86612
C          5.15274       -1.16487        4.92494
C          4.68106       -2.13149        4.04700
C          3.68929       -1.85527        3.12119
C          3.02103        1.80975        3.91480
C          6.24155       -1.48020        5.90404
C          3.18507       -2.90403        2.18190
C         -0.42336        3.73121       -0.17892
C         -0.31960        5.04036       -0.62892
C         -1.17702        6.01997       -0.16124
C         -2.14228        5.69731        0.77817
C         -2.24163        4.39798        1.24225
C         -1.39415        3.40670        0.76674
C          2.47195        2.89644       -0.07684
C          0.88062        2.55189       -2.66740
C         -0.89593        1.76412        3.24061
C         -3.31750        1.14466        1.47406
H          1.08947        0.35831       -1.03872
H          4.96868        0.87247        5.54521
H          5.09587       -3.12872        4.08384
H          2.92153        2.15273        2.88624
H          3.63561        2.51499        4.46833
H          2.02469        1.79828        4.35766
H          6.06156       -0.98347        6.85513
H          7.20041       -1.12994        5.52034
H          6.31496       -2.55159        6.07295
H          2.11669       -3.06723        2.31948
H          3.70286       -3.84593        2.34069
H          3.32782       -2.59896        1.14601
H          0.44060        5.30022       -1.35216
H         -1.09193        7.03511       -0.52370
H         -2.81207        6.46021        1.15036
H         -2.98773        4.15481        1.98569
H          2.39729        3.22327        0.95557
H          2.85462        3.73230       -0.65371
H          3.20581        2.09710       -0.12425
H          0.91588        3.59694       -2.95798
H          0.03676        2.09794       -3.18040
H          1.78168        2.07699       -3.04538
H         -0.68748        0.79581        3.68625
H         -1.67339        2.24069        3.82934
H         -0.00213        2.37328        3.32578
H         -3.93025        1.98300        1.78937
H         -3.48254        0.33563        2.18011
H         -3.69026        0.81101        0.50897
Si        -0.75167       -2.34256        0.74906
Si         1.44109       -1.60903       -1.39913
N         -2.18640        0.26058       -2.18586
C         -1.35325        0.11566       -1.36569
C         -3.15907        0.55722       -3.08471
C         -3.61639       -0.43755       -3.95918
C         -4.60931       -0.11261       -4.86617
C         -5.15286        1.16452       -4.92497
C         -4.68125        2.13120       -4.04706
C         -3.68942        1.85509       -3.12127
C         -3.02073       -1.80984       -3.91493
C         -6.24176        1.47969       -5.90402
C         -3.18526        2.90393       -2.18203
C          0.42324       -3.73105        0.17888
C          0.31943       -5.04021        0.62882
C          1.17679       -6.01985        0.16109
C          2.14205       -5.69721       -0.77832
C          2.24144       -4.39786       -1.24237
C          1.39403       -3.40655       -0.76680
C         -2.47213       -2.89623        0.07722
C         -0.88038       -2.55164        2.66764
C          0.89622       -1.76388       -3.24075
C          3.31767       -1.14457       -1.47379
H         -1.08960       -0.35821        1.03865
H         -4.96856       -0.87280       -5.54525
H         -5.09616        3.12839       -4.08391
H         -2.92116       -2.15283       -2.88638
H         -3.63523       -2.51514       -4.46846
H         -2.02440       -1.79823       -4.35781
H         -6.06176        0.98295       -6.85510
H         -7.20055        1.12933       -5.52025
H         -6.31530        2.55106       -6.07297
H         -2.11690        3.06720       -2.31965
H         -3.70312        3.84579       -2.34085
H         -3.32797        2.59889       -1.14613
H         -0.44077       -5.30008        1.35207
H          1.09167       -7.03500        0.52353
H          2.81181       -6.46011       -1.15054
H          2.98755       -4.15470       -1.98580
H         -2.39797       -3.22156       -0.95572
H         -2.85401       -3.73313        0.65312
H         -3.20639       -2.09735        0.12622
H         -0.91552       -3.59668        2.95826
H         -0.03648       -2.09758        3.18049
H         -1.78144       -2.07678        3.04570
H          0.68779       -0.79554       -3.68632
H          1.67378       -2.24037       -3.82939
H          0.00245       -2.37307       -3.32606
H          3.93044       -1.98295       -1.78898
H          3.48282       -0.33557       -2.17985
H          3.69029       -0.81089       -0.50866
