79
CSD_code = NICWED | q = 0 | S = 0 | Stoichiometry = C27H43B2FeNO3Si2 | MND = 7
Fe         8.08394        2.31910        6.36191
C          8.48981        4.02629        6.60396
O          8.94151        5.05078        6.84931
C          7.44835        2.12572        7.97365
O          7.05729        2.01646        9.04732
C          9.59778        1.50804        6.78698
O         10.63254        1.14858        7.12345
B          6.80059        3.24610        4.39921
C          6.01015        2.12024        5.11513
C          6.52777        0.82375        5.22300
B          7.93729        0.47036        4.69165
C          8.84266        1.66356        4.26464
C          8.31535        2.96791        4.14672
C          4.57435        2.35867        5.50436
H          3.91924        1.74966        4.87911
H          4.31221        3.40184        5.35954
H          4.38342        2.08696        6.54162
C          5.62014       -0.27441        5.71884
H          5.23088       -0.06107        6.71333
H          6.14026       -1.22672        5.74316
H          4.76604       -0.37361        5.04729
C         10.25538        1.40709        3.80043
H         10.30374        1.52350        2.71658
H         10.56369        0.39370        4.04449
H         10.96920        2.10423        4.23642
C          9.18547        4.05638        3.56932
H         10.10784        4.19164        4.13326
H          8.64225        4.99617        3.55237
H          9.46426        3.80111        2.54565
N          6.14960        4.47511        3.93690
Si         5.66751        4.43748        2.24996
C          6.33800        5.95850        1.31390
H          5.98341        6.88440        1.75331
H          6.00884        5.94136        0.27993
H          7.42295        5.98905        1.31097
C          3.76830        4.34865        2.05446
H          3.32432        3.66481        2.77054
H          3.50680        3.99720        1.06104
H          3.29791        5.31571        2.18763
C          6.35493        2.85401        1.44161
H          7.43724        2.81596        1.46990
H          6.05178        2.78816        0.40148
H          5.98314        1.97082        1.95033
Si         5.86269        5.85165        4.97509
C          4.24586        6.74225        4.49783
H          4.29164        7.15379        3.49633
H          4.06714        7.56787        5.17963
H          3.38361        6.08630        4.54769
C          7.27623        7.13128        4.81058
H          8.19831        6.78910        5.26898
H          7.00110        8.06124        5.29974
H          7.49059        7.36346        3.77185
C          5.67080        5.36452        6.81189
H          4.62862        5.36412        7.11547
H          6.19052        6.07301        7.44878
H          6.07772        4.37972        7.02311
C          8.41809       -1.02546        4.47291
C          8.51138       -1.48884        3.15127
C          8.98207       -2.77107        2.87186
C          9.35894       -3.59229        3.92118
H          9.73650       -4.58347        3.70874
C          9.24965       -3.17738        5.23718
C          8.76606       -1.89627        5.51518
C          8.07646       -0.62270        2.00318
H          8.90788       -0.43894        1.32264
H          7.69292        0.32936        2.35400
H          7.29237       -1.12095        1.43311
C          9.08709       -3.26776        1.46059
H          8.10755       -3.28459        0.98296
H          9.49665       -4.27484        1.43969
H          9.73275       -2.62007        0.86809
C          9.65100       -4.10939        6.34194
H         10.40966       -3.65410        6.97763
H         10.05228       -5.03384        5.93346
H          8.79613       -4.35634        6.97178
C          8.63856       -1.49813        6.95824
H          8.04895       -2.23562        7.50228
H          8.16445       -0.52673        7.06771
H          9.62038       -1.45505        7.43017
