90
CSD_code = NISRAL | q = 0 | S = 0 | Stoichiometry = C38H49NSiTi | MND = 8
Ti         3.30668        5.89740        4.05060
Si         5.62835        7.46067        4.40127
N          5.00480        6.23965        3.31466
C          1.52822        5.63974        7.31333
H          0.45005        5.63828        7.41033
C          2.29476        4.78549        8.07393
H          1.79374        4.11574        8.75644
C          3.70144        4.76879        7.99295
C          4.33518        5.64297        7.13183
H          5.41118        5.69202        7.08081
C          3.58965        6.52634        6.33148
C          2.15515        6.51123        6.42347
C          1.66161        7.52752        5.53768
C          2.80000        8.14510        4.91618
C          4.00932        7.52595        5.38560
C          2.60058        9.23866        4.05565
H          3.46740        9.72092        3.63302
C          1.32812        9.71742        3.81193
C          0.22774        9.07678        4.41552
H         -0.77005        9.44139        4.22396
C          0.38048        8.00685        5.26705
H         -0.48381        7.55452        5.73599
C          1.06455       10.93315        2.93362
C          0.18140       10.51828        1.74826
H         -0.78169       10.14403        2.08464
H          0.66581        9.73271        1.17175
H          0.00576       11.36875        1.09240
C          2.35027       11.55900        2.38459
H          2.09823       12.41742        1.76441
H          2.90804       10.85434        1.77297
H          2.98836       11.90596        3.19408
C          0.34171       12.00467        3.76361
H         -0.61928       11.64965        4.12477
H          0.17010       12.89394        3.16014
H          0.94688       12.28214        4.62413
C          4.46749        3.77635        8.85671
C          4.16865        4.05194       10.33681
H          4.46201        5.06735       10.59520
H          4.72315        3.36006       10.96785
H          3.11074        3.93803       10.55597
C          4.02210        2.35270        8.49091
H          2.96269        2.20647        8.68204
H          4.57692        1.62220        9.07650
H          4.20693        2.16126        7.43550
C          5.98330        3.86226        8.65426
H          6.25294        3.65066        7.62154
H          6.47535        3.12615        9.28734
H          6.36046        4.84495        8.92754
C          5.77399        5.57246        2.27792
C          6.50310        6.59115        1.40166
C          7.85755        6.50750        1.19344
H          8.44102        5.74065        1.67479
C          8.53870        7.39396        0.34684
H          9.60663        7.28602        0.22372
C          7.85710        8.36448       -0.32447
H          8.36612        9.03943       -0.99737
C          6.46514        8.49874       -0.14766
C          5.77603        7.62695        0.74113
C          4.38927        7.84420        0.91927
H          3.84809        7.25962        1.65569
C          3.72370        8.80661        0.21135
H          2.65925        8.92961        0.34927
C          4.40298        9.63892       -0.68925
H          3.86032       10.39564       -1.23657
C          5.75112        9.49530       -0.84678
H          6.29867       10.14364       -1.51622
C          4.87344        4.72078        1.35326
H          4.29717        4.01650        1.95787
H          5.50234        4.16511        0.65895
H          4.19309        5.33638        0.77005
C          6.73361        4.58197        2.96889
H          7.47322        5.11115        3.56036
H          7.23334        3.93956        2.24783
H          6.13771        3.96005        3.63777
C          1.74121        5.90964        2.70273
H          1.49021        6.93746        2.40166
H          0.85870        5.51327        3.23233
H          1.84901        5.31725        1.78392
C          3.23527        3.88436        4.52334
H          2.98862        3.18959        3.70832
H          2.45934        3.75521        5.29246
H          4.18232        3.54718        4.96754
C          7.16238        6.97697        5.45962
H          7.16291        5.93393        5.75923
H          7.21150        7.58203        6.35949
H          8.07473        7.16020        4.90013
C          6.16542        9.12396        3.60592
H          7.15601        9.02836        3.17260
H          6.20901        9.91025        4.35276
H          5.50155        9.44873        2.81286
