63
CSD_code = NOBBEN | q = 0 | S = 0 | Stoichiometry = C25H34N2RuSi | MND = 9
C         10.62711       -1.97160        4.65924
H          9.84287       -1.30424        4.31718
H         10.22027       -2.57623        5.46219
H         10.86485       -2.64099        3.83664
C         13.36800       -2.52263        5.65876
H         13.19270       -3.35171        4.98012
H         13.15417       -2.87558        6.66164
H         14.42288       -2.27557        5.61442
C         13.10572       -1.29431        2.40862
H         13.18788       -2.36278        2.44643
C         13.26071       -0.45925        1.33964
H         13.49260       -0.73609        0.33022
C         13.05078        0.85850        1.82602
C         12.78404        0.70217        3.21855
C         13.04452        2.14782        1.30919
H         13.23752        2.34216        0.26502
C         12.78584        3.17498        2.19954
H         12.76904        4.20006        1.86296
C         12.55640        2.91567        3.54775
H         12.39806        3.74544        4.22335
C         10.70516        2.55252        6.25750
H         10.70940        3.29313        5.45451
C         10.20452        1.28188        5.91576
H          9.91174        1.15734        4.86881
C          9.36494        0.45368        6.87461
H          8.68551       -0.17434        6.29638
H          8.74404        1.13002        7.46824
C         10.20445       -0.44926        7.79762
H          9.75470       -0.48562        8.79759
H         10.20051       -1.46675        7.41027
C         11.64247        0.00542        7.93581
H         12.32140       -0.79845        8.21784
C         11.95330        1.29214        8.37618
H         12.85450        1.40218        8.97312
C         10.87888        2.28857        8.77085
H         10.01176        1.74516        9.15219
H         11.25216        2.90563        9.59170
C         10.46783        3.19721        7.60551
H          9.40940        3.47644        7.69258
H         11.04491        4.12421        7.65095
C         14.56821        0.70046        6.31467
H         15.05520        0.15588        5.49854
C         14.40963        2.07956        6.00620
H         14.62516        2.37247        4.97399
C         13.83030        3.03852        6.84172
H         13.54635        3.98215        6.37113
C         14.20085        3.21855        8.24023
H         13.50171        3.77084        8.85774
C         15.38845        2.88701        8.75666
H         15.58802        3.11279        9.79604
C         16.50942        2.25986        7.98937
H         17.46367        2.58333        8.41266
H         16.46148        2.60832        6.95309
C         16.47064        0.72518        7.98039
H         16.76121        0.34849        8.96389
H         17.19715        0.35772        7.25171
C         15.07231        0.18870        7.65185
H         15.11165       -0.90212        7.61508
H         14.41786        0.46541        8.47440
N         12.82216       -0.59978        3.54704
N         12.54746        1.69163        4.07975
Si        12.22869       -1.02403        5.21709
Ru        12.36619        1.17264        6.16966
