41
CSD_code = NOFGIY | q = -1 | S = 0 | Stoichiometry = C18H15MoO6Si(1-) | MND = 6
Mo         3.88135       13.25792        0.16040
Si         5.97612       13.76343        2.59445
O          4.61564       13.21383        1.99474
O          2.96726       14.69997        0.78500
O          2.46773       14.29801       -0.44153
O          3.21788       11.81539       -0.79844
O          3.96346       11.44541        0.30662
O          5.20963       13.78698       -0.66658
C          6.07943       15.66976        2.58968
C          6.48046       16.40962        3.69796
C          6.53976       17.79187        3.65559
C          6.19107       18.46230        2.49564
C          5.78652       17.74195        1.38331
C          5.73507       16.35947        1.42898
C          6.08820       13.17544        4.40237
C          7.30021       13.14983        5.08148
C          7.37261       12.76376        6.40846
C          6.22279       12.39212        7.08482
C          5.00646       12.40595        6.42283
C          4.94538       12.79548        5.09644
C          7.47506       13.11710        1.61174
C          7.30195       12.02136        0.76999
C          8.34972       11.54492        0.00104
C          9.59366       12.15124        0.06541
C          9.78205       13.24171        0.89716
C          8.72874       13.71940        1.65693
H          6.74663       15.88981        4.60852
H          6.85541       18.34882        4.52870
H          6.23324       19.54323        2.46018
H          5.51088       18.26196        0.47646
H          5.42323       15.79553        0.55693
H          8.20116       13.43213        4.55638
H          8.32663       12.75096        6.91976
H          6.27580       12.09050        8.12280
H          4.10591       12.11293        6.94639
H          4.00129       12.80642        4.57211
H          6.32791       11.54775        0.71815
H          8.19644       10.69969       -0.65542
H         10.41319       11.78015       -0.53633
H         10.74990       13.72444        0.94563
H          8.87617       14.58476        2.28953
