92
CSD_code = NOFKID | q = 0 | S = 0 | Stoichiometry = C40H48NOSiTa | MND = 9
Ta        10.28391        7.22600       10.67133
Si         9.37491        3.87502       11.09877
O          9.74445        5.33870       10.57100
N         10.78052        8.49186       12.03679
C         11.99939        7.02726        9.16971
H         12.80416        6.42822        9.59348
H         12.43013        7.96306        8.81735
H         11.61908        6.48944        8.30343
C         11.51528        7.34772       12.48551
C         11.10408        6.71929       13.81260
H         11.29301        7.40258       14.64261
H         11.69449        5.81927       13.97832
H         10.05528        6.42995       13.81702
C         13.03140        7.52228       12.46543
H         13.37188        7.92082       11.51362
H         13.51836        6.56390       12.63747
H         13.34062        8.20384       13.26063
C         10.76832        9.70699       12.75713
C         11.65247       10.73789       12.38984
C         11.67008       11.92087       13.11411
H         12.36065       12.70031       12.82516
C         10.82105       12.11585       14.18647
H         10.84997       13.03856       14.74629
C          9.91737       11.12581       14.51648
H          9.22472       11.27828       15.33217
C          9.87110        9.92781       13.81550
C         12.57304       10.60665       11.21161
H         12.61485       11.55021       10.67030
H         12.22778        9.82108       10.54143
H         13.58338       10.36932       11.54279
C          8.82192        8.92528       14.20030
H          9.08656        8.42845       15.13296
H          8.70470        8.17366       13.42431
H          7.86996        9.43141       14.35646
C          8.35448        4.05986       12.69296
C          8.15848        2.99754       13.56827
H          8.60252        2.03894       13.34164
C          7.40983        3.15098       14.72167
H          7.26788        2.31303       15.38948
C          6.84244        4.37789       15.02296
H          6.25817        4.49955       15.92369
C          7.02746        5.44822       14.16401
H          6.58742        6.40863       14.39468
C          7.77592        5.28320       13.01225
H          7.91535        6.11616       12.33140
C         10.95536        2.89051       11.45810
C         12.16004        3.54798       11.68122
H         12.17589        4.62886       11.63249
C         13.31883        2.84233       11.95101
H         14.24801        3.36863       12.12120
C         13.28986        1.45863       12.00250
H         14.19266        0.90358       12.21426
C         12.09957        0.78816       11.77553
H         12.07373       -0.29209       11.80795
C         10.94564        1.50120       11.50415
H         10.02126        0.97278       11.31436
C          8.36042        2.94153        9.79086
C          7.07296        2.48502       10.04960
H          6.63561        2.66302       11.02254
C          6.34585        1.81146        9.08395
H          5.34588        1.46524        9.30467
C          6.89785        1.58305        7.83503
H          6.33093        1.06009        7.07814
C          8.18078        2.02686        7.56088
H          8.61778        1.84951        6.58817
C          8.90187        2.69638        8.53293
H          9.90518        3.03827        8.31968
C          8.06019        8.51601       10.12015
C          9.05055        9.25671        9.39029
C          9.34832        8.52745        8.21203
C          8.54833        7.35739        8.20210
C          7.73797        7.35817        9.34504
C          7.18124        9.12231       11.17444
H          7.73482        9.84010       11.77487
H          6.75283        8.36702       11.83178
H          6.35338        9.65323       10.69773
C          9.38763       10.69624        9.63869
H         10.30485       10.97983        9.12857
H          9.50731       10.90117       10.70047
H          8.58458       11.33327        9.26104
C         10.21812        9.00410        7.09165
H          9.62067        9.56388        6.36869
H         10.68147        8.17263        6.56401
H         11.00447        9.66307        7.45491
C          8.51345        6.29613        7.14887
H          8.52857        5.30612        7.60645
H          9.35966        6.38116        6.47063
H          7.59892        6.37246        6.55708
C          6.67164        6.34945        9.62762
H          5.97398        6.30123        8.79002
H          6.10999        6.59968       10.52469
H          7.09918        5.35232        9.75199
