69
CSD_code = NONVIV | q = 0 | S = 0 | Stoichiometry = C18H42Cl2HfN4Si2 | MND = 4
Hf         6.72640        2.78788        4.64207
Cl         8.40027        4.25338        5.41020
Cl         8.01450        0.82775        4.80381
Si         4.85183        2.58683        2.57738
Si         4.01550        2.24221        5.05698
N          4.66672        3.58860        4.05898
N          4.20790        1.29825        3.58586
N          5.36056        2.19310        6.08724
N          6.54425        2.68196        2.57746
C          3.75540        3.02956        1.09861
C          2.22203        2.39935        5.64328
C          4.56503        5.02164        4.22361
C          3.17241        5.53654        3.82669
C          5.63223        5.69955        3.35047
C          4.84453        5.37469        5.69265
C          3.76556       -0.04173        3.25047
C          3.87679       -0.93505        4.48766
C          2.30989       -0.02423        2.75928
C          4.66815       -0.61196        2.15452
C          5.58585        1.71836        7.44130
C          6.93376        2.30683        7.90089
C          4.47752        2.20464        8.38534
C          5.66528        0.18559        7.49841
C          7.56953        2.53890        1.55871
C          8.87334        3.10213        2.15665
C          7.20807        3.33940        0.29970
C          7.78930        1.06686        1.17938
H          2.71069        3.08917        1.37876
H          3.85328        2.27255        0.33048
H          4.04881        3.97601        0.66196
H          1.55109        2.62175        4.82241
H          2.12016        3.17618        6.39070
H          1.90104        1.46908        6.09514
H          2.96889        5.29285        2.78767
H          3.11001        6.61480        3.95157
H          2.41291        5.06858        4.44680
H          5.44679        5.48804        2.29996
H          6.62651        5.31952        3.61696
H          5.61870        6.77778        3.49598
H          4.09122        4.92588        6.33595
H          4.82829        6.45295        5.83777
H          5.83106        4.99372        5.98517
H          3.22976       -0.56215        5.27753
H          4.90318       -0.93215        4.84424
H          3.58586       -1.95519        4.24906
H          2.22375        0.60236        1.87580
H          1.66152        0.37560        3.53412
H          1.98026       -1.02994        2.50995
H          4.59290       -0.00578        1.25538
H          4.37889       -1.63218        1.91436
H          5.69953       -0.60580        2.49636
H          6.90495        3.39733        7.85318
H          7.74265        1.93677        7.26323
H          7.14727        2.01317        8.92650
H          4.40938        3.28905        8.35345
H          4.68817        1.89546        9.40587
H          3.52210        1.78698        8.08230
H          4.70049       -0.24564        7.24614
H          5.94680       -0.14252        8.49610
H          6.40897       -0.17133        6.78897
H          9.16951        2.51647        3.03247
H          8.73486        4.14525        2.44840
H          9.67853        3.05352        1.42663
H          6.29723        2.94627       -0.14187
H          8.00941        3.27458       -0.43174
H          7.04858        4.38405        0.55463
H          7.99063        0.48200        2.07450
H          8.63401        0.97217        0.50139
H          6.90186        0.67276        0.69189
