53
CSD_code = NOPHAD | q = 0 | S = 0 | Stoichiometry = C21H30SiZr | MND = 14
Zr         9.29863       16.01306        7.34958
Si         9.95765       19.78995        8.46018
C          9.97108       17.93804        8.53889
C         10.58526       16.95325        9.06171
C         10.80285       15.61427        9.24127
H         10.69669       15.17803       10.22968
C         11.07392       14.79101        8.04888
H         11.88317       15.22909        7.43535
C         11.31239       13.28515        8.19717
C         10.77495       12.61735        6.91662
H         10.82440       11.53232        6.99611
H         11.36944       12.91654        6.05460
H          9.73362       12.91580        6.74263
C         12.81530       12.98808        8.32358
H         13.22543       13.49099        9.19695
H         13.35456       13.33725        7.44487
H         12.99058       11.91877        8.42853
C         10.59889       12.67737        9.40991
H         10.65898       11.59099        9.36819
H          9.55052       12.96435        9.43312
H         11.07107       12.99441       10.33697
C          8.51831       16.63840        5.01924
H          7.48862       16.77601        4.71402
C          9.38456       17.65771        5.46330
H          9.13116       18.70591        5.54766
C         10.68490       17.11156        5.55533
H         11.59233       17.66384        5.76905
C         10.61299       15.75502        5.18379
H         11.45871       15.10141        5.01388
C          9.26841       15.45238        4.87447
H          8.91621       14.52590        4.43434
C          6.78706       16.39380        7.55556
H          6.22798       17.18014        7.06245
C          7.32062       16.46304        8.86034
H          7.24478       17.30867        9.53221
C          7.81763       15.18813        9.19531
H          8.15161       14.88714       10.17981
C          7.61694       14.33055        8.08334
H          7.71581       13.25104        8.08435
C          6.95861       15.07933        7.08072
H          6.53989       14.67061        6.16819
C          8.16273       20.25200        7.94500
H          7.69421       19.45695        7.36584
H          8.13442       21.15959        7.34879
H          7.54026       20.42279        8.81891
C         10.31229       20.55874       10.17465
H          9.68379       20.11224       10.93861
H         10.12246       21.62769       10.17389
H         11.34501       20.40525       10.47057
C         11.19098       20.55794        7.20845
H         12.21421       20.28876        7.45387
H         11.12717       21.64219        7.21691
H         11.00048       20.22763        6.19207
