86
CSD_code = NOYYIL | q = 0 | S = 0 | Stoichiometry = C28H52NOP2SiV | MND = 5
V          5.56053        8.66246        6.75576
P          4.52210       10.75455        7.03214
P          5.86570        6.33500        6.96072
Si         5.69548        8.66938        3.25423
O          4.15091        8.14684        7.91385
N          7.06347        9.17457        6.57529
C          3.65717        8.08157        9.11604
C         10.15084       11.08351        5.59900
C          9.38128        8.52094        6.78979
C          7.15401        5.37285        6.06070
C          6.05219        5.58817        8.63361
C         10.79837        9.07289        6.92467
C          8.49648       10.54748        7.95553
C          4.34271       11.51216        8.70180
C          3.87014        8.27098       11.52443
C          2.54009        7.93111       11.69617
C          1.76736        7.66026       10.58102
C          2.29784        7.72694        9.30661
C          1.42887        7.41557        8.11725
C          4.44206        8.35027       10.26724
C          5.02654        8.52525        4.98886
C          4.51673        7.84665        1.97300
C          5.91238       10.48884        2.67194
C          4.38324        5.42659        6.38081
C          5.89516        8.71981       10.13694
C         10.25233       11.94688        6.85563
C          9.91513       11.09769        8.07997
C         10.90180        9.93514        8.18203
C         11.13543        9.91908        5.69756
C          8.73018       10.54248        5.46098
C          8.36418        9.67749        6.68416
C          7.39551        7.79041        3.10348
C          5.07042       12.22829        6.07872
C          2.75950       10.71744        6.52956
H          9.11968        7.90469        7.65557
H          9.29834        7.90204        5.89406
H          8.25500        9.93626        8.82865
H          7.76805       11.36160        7.89623
H         12.15661       10.29946        5.77786
H         11.07369        9.30606        4.79617
H          0.52728        8.02987        8.12541
H          1.11569        6.36973        8.13344
H          1.96845        7.59939        7.18877
H         11.91953       10.31834        8.28732
H         10.67685        9.33338        9.06559
H          3.75703       12.43063        8.64180
H          5.33031       11.73724        9.10383
H          3.84419       10.80913        9.36861
H          3.97397        8.21148        4.99692
H          6.03006        4.49946        8.56693
H          5.24261        5.92593        9.27937
H          7.00252        5.90414        9.06432
H          2.11228        7.87596       12.68614
H          0.72619        7.38928       10.69772
H          3.54973        8.34062        1.95244
H          4.34303        6.80010        2.20724
H          4.92614        7.89177        0.96855
H         11.26294       12.35121        6.95108
H          9.55981       12.78880        6.78456
H          4.38367       13.06461        6.21388
H          5.12019       11.95091        5.02809
H          6.06560       12.52007        6.40789
H          8.01078       11.36040        5.39001
H          8.63252        9.93369        4.56275
H          8.13991        5.68143        6.40204
H          7.06833        5.59670        4.99974
H          7.03172        4.30159        6.22396
H         10.39317       11.69109        4.71935
H         11.50561        8.23786        6.99693
H          9.98615       11.71557        8.98350
H          6.58419       11.02397        3.33407
H          4.96328       11.01728        2.65390
H          6.32749       10.53252        1.66925
H          6.18895        8.76871        9.08182
H          6.52271        7.98391       10.64469
H          6.08664        9.68849       10.60309
H          3.51358        5.76447        6.93965
H          4.51204        4.35268        6.52587
H          4.23404        5.64066        5.32246
H          7.29331        6.77149        2.74126
H          7.86132        7.75690        4.08319
H          8.06277        8.31108        2.42367
H          2.69906       10.42815        5.48042
H          2.29995       11.69727        6.66928
H          2.23027        9.98363        7.13367
H          4.48686        8.48153       12.38883
