63
CSD_code = NUNWUQ | q = 0 | S = 0 | Stoichiometry = C15H36B2FeN2O3Si4 | MND = 5
Fe         2.16680       13.70767       16.78982
Si         2.38608       10.48928       13.90227
N          1.22767       11.18343       15.06791
B          1.58503       12.30201       15.77831
Si        -0.29339       10.36827       15.50953
N          0.01460       14.98270       14.80094
B          0.89324       14.37757       15.66328
Si         0.51750       15.15783       13.09873
Si        -1.52484       15.62390       15.42445
C          1.44899        9.71760       12.43175
H          0.90346       10.46021       11.85834
H          0.74401        8.95354       12.73846
H          2.16069        9.25056       11.75849
C          3.49697       11.88049       13.23565
H          3.92459       12.45419       14.05256
H          2.95730       12.57122       12.59604
H          4.31834       11.46918       12.65712
C          3.44896        9.19649       14.81094
H          2.86366        8.36650       15.19325
H          3.96055        9.65419       15.65316
H          4.20835        8.78613       14.15190
C         -0.03760        8.48617       15.66208
H          0.67002        8.24914       16.45075
H          0.32270        8.03060       14.74649
H         -0.97778        8.00632       15.91610
C         -1.60042       10.79192       14.18562
H         -1.32813       10.42677       13.20101
H         -1.74101       11.86636       14.11256
H         -2.55813       10.34989       14.44323
C         -0.85207       11.03090       17.19860
H         -0.90134       12.11513       17.19150
H         -0.15303       10.75312       17.98123
H         -1.82856       10.64649       17.47641
C          0.07393       13.52107       12.22413
H         -0.99639       13.42400       12.06704
H          0.40019       12.67186       12.81671
H          0.54994       13.45536       11.25031
C         -0.35804       16.60925       12.23171
H         -0.07523       17.56374       12.66216
H         -1.43900       16.53533       12.26630
H         -0.06719       16.62786       11.18586
C          2.38717       15.49856       13.07827
H          2.91222       14.81441       13.74014
H          2.60500       16.50529       13.42360
H          2.80682       15.39840       12.08187
C         -1.71943       15.09700       17.23888
H         -0.80416       15.27398       17.79566
H         -1.95568       14.04185       17.33260
H         -2.51776       15.65132       17.72230
C         -2.94835       14.87656       14.39604
H         -3.08615       13.82241       14.61882
H         -2.78188       14.96793       13.32802
H         -3.88205       15.37964       14.62647
C         -1.49568       17.52899       15.33616
H         -1.81471       17.90716       14.37116
H         -0.49886       17.91317       15.53102
H         -2.15956       17.95287       16.08351
O          4.54863       12.02969       16.87137
C          3.62503       12.73549       16.86027
O          1.13573       13.52098       19.52575
C          1.54952       13.59654       18.44780
O          3.14040       16.45092       16.57402
C          2.79182       15.34850       16.67669
