134
CSD_code = ODUREN | q = 0 | S = 0 | Stoichiometry = C50H75CoN4O3Si | MND = 5
Co         6.25735        6.41374        5.55042
Si         8.48106        6.39909        4.80551
O          9.30375        7.83763        4.86070
O          8.70850        5.90567        3.24145
O          9.51938        5.43067        5.65443
N          5.90809        3.87471        3.99622
N          7.49224        6.46433        8.30731
N          3.37506        6.25106        6.19930
N          6.04423        9.12281        4.25736
C          6.07276        4.85131        4.62700
C          4.52523        6.33737        5.98246
C          6.96733        6.44374        7.25916
C          8.25786        6.48908        9.48390
C          5.78342        2.74737        3.17048
C          6.11520        8.05910        4.74779
C          1.98251        6.09377        6.29050
C          6.12959       10.37236        3.62366
C          9.49124        7.95771       11.08232
H          9.77167        8.99225       11.31067
C         10.67023        9.57764        5.76782
H         10.94537       10.07708        6.69412
H         11.55674        9.13233        5.32440
H         10.26955       10.31253        5.07448
C          8.28475        5.94080       11.91871
H          7.69949        5.52701       12.74790
C          6.50408       13.27184        3.74653
H          6.57895       14.24892        3.26386
H          6.62550       13.41970        4.82211
C          9.38908        4.05797        5.84783
H          8.34079        3.81243        6.07137
H         10.00227        3.79795        6.72051
C          5.96018       10.18835        2.11000
H          4.98737        9.73409        1.90541
H          6.73227        9.51100        1.74100
C          7.50079       10.99167        3.91830
H          8.28188       10.31431        3.56790
H          7.61980       11.10837        4.99811
C          8.67819        7.38200       12.24151
H          7.78219        7.98576       12.40372
H          9.26988        7.40799       13.15931
C          7.43889        5.91259       10.64599
H          7.14195        4.88820       10.40929
H          6.52942        6.50309       10.78094
C          1.57122        4.79356        5.58702
H          2.08065        3.95009        6.05871
H          1.88576        4.83227        4.54152
C          8.65023        7.93679        9.80730
H          7.74660        8.53764        9.93685
H          9.21491        8.35442        8.97136
C          4.30174        2.51188        2.84835
H          3.89349        3.39470        2.35043
H          3.74538        2.36290        3.77712
C          5.02607       11.29770        4.15127
H          5.13323       11.41378        5.23233
H          4.04859       10.84918        3.95725
C          4.94666        1.51687        0.64971
H          4.53866        2.38237        0.12252
H          4.84335        0.64760       -0.00367
C          4.17268        1.28455        1.94713
H          3.11407        1.11755        1.71703
C          4.73814        0.05937        2.66502
H          4.18026       -0.12305        3.58654
H          4.63311       -0.82319        2.03007
C          6.42215        1.75236        0.97289
H          6.97755        1.92082        0.04356
C          9.52008        5.64210        9.28179
H         10.08415        6.02813        8.43023
H          9.22968        4.61548        9.04678
C          5.13606       12.65465        3.45644
H          4.34847       13.31657        3.83453
C          0.05578        4.62663        5.68601
H         -0.23687        3.69795        5.18331
C          6.06733       11.54839        1.42295
H          5.94743       11.41567        0.34172
C          6.34961        1.51819        3.89281
H          5.80509        1.36286        4.82753
H          7.39747        1.69661        4.13992
C          9.54686        5.10254       11.71669
H         10.14571        5.10933       12.63029
H          9.27543        4.06638       11.50201
C          9.85665        3.27101        4.63066
H          9.72461        2.20287        4.79192
H          9.28450        3.59815        3.76800
H         10.90645        3.47712        4.44008
C          6.21359        0.29537        2.98750
H          6.61946       -0.58173        3.50411
C         10.35960        5.67859       10.55698
H         11.26343        5.07722       10.40946
C          1.56882        6.03105        7.76575
H          1.87903        6.94939        8.26937
H          2.07773        5.19460        8.25015
C          6.55790        2.98244        1.86788
H          7.60677        3.17673        2.10053
H          6.15952        3.86720        1.36559
C          7.43771       12.15950        1.71324
H          8.22431       11.50375        1.33352
H          7.52950       13.12323        1.20705
C          6.99105        0.53020        1.69285
H          6.91494       -0.34912        1.04911
H          8.04746        0.69135        1.91833
C         10.75290        7.12112       10.87299
H         11.33930        7.53428       10.04936
H         11.37103        7.14923       11.77334
C          7.60166       12.34633        3.22112
H          8.58279       12.78730        3.43046
C          0.05337        5.85879        7.85604
H         -0.24112        5.81400        8.91047
C         -0.22471        7.10597        5.71284
H         -0.71861        7.95630        5.22943
C          4.96966       12.47383        1.94780
H          3.98758       12.04764        1.72952
H          5.03152       13.44383        1.44941
C          8.19503        6.53106        2.10794
H          7.16723        6.86917        2.30371
H          8.16601        5.77724        1.31002
C         -0.35723        4.56343        7.15627
H          0.12239        3.71028        7.64144
H         -1.43827        4.42754        7.23213
C         -0.63720        7.04482        7.18328
H         -0.35739        7.97288        7.68695
H         -1.72119        6.93573        7.26036
C          1.28953        7.28346        5.61369
H          1.60122        7.33644        4.56798
H          1.59865        8.21004        6.10276
C          9.05950        7.71038        1.68153
H          8.62727        8.21240        0.81803
H          9.14100        8.39678        2.51874
H         10.05784        7.36262        1.42986
C         -0.63508        5.81145        5.01149
H         -1.71898        5.68818        5.06502
H         -0.35447        5.85464        3.95666
C          9.63875        8.49208        6.04420
H         10.04626        7.76447        6.75578
H          8.72909        8.92711        6.48578
