75
CSD_code = OKAYAA | q = 0 | S = 0 | Stoichiometry = C19H48CrN4Si3 | MND = 5
C          6.14317        7.74325        3.27044
H          5.39796        8.20387        3.92612
H          5.60793        7.25385        2.44429
C          7.02397        8.85462        2.67984
H          6.42233        9.51387        2.03742
H          7.41612        9.45466        3.50390
C          8.26243        6.58626        0.21576
H          8.01891        6.36916       -0.83176
H          9.34240        6.44579        0.34642
C          7.91612        8.05529        0.53360
H          8.51117        8.74132       -0.08476
H          6.86021        8.20689        0.30395
C          9.85022        8.24738        3.64778
H         10.82431        8.65800        3.93168
H          9.12602        8.53568        4.42257
C          9.42222        8.84056        2.30002
H          9.39014        9.94248        2.33575
H         10.15831        8.53527        1.55208
C          8.13482        4.06047        3.37202
H          8.49569        3.97242        4.40125
H          7.08694        3.75591        3.40417
C          8.87904        3.04823        2.51494
H          8.63427        3.21576        1.46127
H          9.95715        3.17111        2.63736
C          8.51870        1.59913        2.86817
H          7.44301        1.45622        2.73848
H          8.75047        1.41887        3.92066
C          9.27106        0.59323        2.00478
H          8.99494       -0.42608        2.26759
H         10.34493        0.70356        2.14046
H          9.04340        0.74955        0.95216
C          5.84560        7.93592        6.49557
H          6.39627        8.84782        6.28578
H          5.84488        7.79535        7.57132
H          4.81495        8.09319        6.19374
C          8.28542        6.01810        6.47528
H          9.09510        6.09660        5.75467
H          8.29215        5.01119        6.87726
H          8.49174        6.69586        7.29759
C          5.38249        4.96620        5.88330
H          4.42324        5.16653        5.41486
H          5.20084        4.80175        6.94114
H          5.76567        4.04075        5.46729
C          5.06197        6.24437       -0.53257
H          4.66381        7.08609        0.02728
H          4.21720        5.72308       -0.97210
H          5.65380        6.64139       -1.35200
C          4.92640        4.50285        1.99993
H          4.96694        3.42935        2.14510
H          3.89463        4.75807        1.78022
H          5.20401        4.97632        2.93480
C          6.47893        3.53537       -0.55096
H          6.82803        2.68612        0.02750
H          7.24744        3.77194       -1.28197
H          5.59571        3.21731       -1.09598
C         12.86507        7.16771        3.69584
H         12.83771        7.62280        4.68091
H         12.90627        7.96569        2.96044
H         13.79496        6.61336        3.62355
C         11.62610        5.26482        1.65185
H         11.98435        6.01727        0.95353
H         10.69731        4.85810        1.26153
H         12.35844        4.46386        1.66100
C         11.55418        4.62208        4.73980
H         11.66428        5.04485        5.73393
H         12.43458        4.01855        4.54209
H         10.69664        3.96113        4.75913
Cr         8.28547        6.04349        2.84079
N          6.93725        6.75763        3.96036
N          7.55204        5.75552        1.15209
N          9.85793        6.81150        3.53739
N          8.13657        8.26485        1.95162
Si         6.62075        6.40917        5.62406
Si         6.07715        5.03935        0.57673
Si        11.37528        5.99129        3.41485
