107
CSD_code = OMABEJ | q = 0 | S = 0 | Stoichiometry = C38H49B10N5O3SiZr | MND = 10
Zr        -3.66813       -3.60384        3.68965
Si        -6.15381       -6.16429        2.90351
O         -2.99007       -1.82759        2.84501
O         -1.96475       -4.47474        2.91265
O         -2.18866       -3.00535        5.02567
N         -0.45171       -2.82481        3.50121
N          0.15441       -4.65451        2.21158
N         -4.79546       -1.78748        4.11495
N         -3.69005        0.23155        3.47737
N         -0.79959       -1.16293        5.02644
C         -5.74359       -5.07140        1.40154
C         -4.64807       -3.89352        1.69967
B         -6.28634       -3.46560        1.44701
H         -6.89885       -3.11294        2.39584
B         -6.92398       -4.61096        0.25175
H         -8.01474       -5.03163        0.38902
B         -5.62336       -5.70981       -0.18820
H         -5.85468       -6.85391       -0.33838
B         -4.19442       -5.24557        0.74180
H         -3.47611       -6.04234        1.24192
B         -5.02974       -2.53399        0.67370
H         -4.80310       -1.44289        1.06835
B         -6.47716       -2.97623       -0.24848
H         -7.27815       -2.17479       -0.57210
B         -6.04135       -4.37801       -1.26992
H         -6.54768       -4.56752       -2.31659
B         -4.32290       -4.78329       -0.95777
H         -3.61661       -5.25276       -1.77722
B         -3.72720       -3.62844        0.25953
H         -2.59623       -3.29314        0.39073
B         -4.85614       -3.08035       -1.00311
H         -4.51804       -2.34443       -1.85999
C         -5.90244       -8.01499        2.47945
H         -5.80408       -8.60583        3.38452
H         -5.02056       -8.18792        1.87222
H         -6.75368       -8.40058        1.92778
C         -7.99052       -5.95990        3.40633
H         -8.19860       -6.50743        4.32003
H         -8.65128       -6.34471        2.63695
H         -8.25978       -4.92281        3.57535
C         -5.03836       -5.53572        4.26090
C         -5.41975       -4.57307        5.24521
H         -6.41177       -4.14327        5.32787
C         -4.39954       -4.40095        6.18136
H         -4.44067       -3.77938        7.06613
C         -2.09147       -5.54070        6.41794
H         -1.79975       -5.02451        7.32330
C         -1.25903       -6.46964        5.84265
H         -0.29706       -6.68207        6.28843
C         -1.64344       -7.17028        4.68863
H         -0.97099       -7.91319        4.28132
C         -2.85764       -6.94291        4.08557
H         -3.14856       -7.51529        3.21525
C         -3.72725       -5.98280        4.63166
C         -3.33739       -5.27708        5.82800
C          0.40889       -1.90769        2.83552
C          1.45888       -1.29073        3.50389
H          1.64271       -1.52123        4.53991
C          2.24468       -0.36789        2.83671
H          3.05563        0.11710        3.35851
C          1.99690       -0.06544        1.50760
H          2.61485        0.65421        0.99227
C          0.94865       -0.68096        0.84445
H          0.74262       -0.44077       -0.18757
C          0.14872       -1.59639        1.50606
H         -0.69527       -2.05460        1.01066
C         -0.80769       -3.98833        2.88060
C          1.57261       -4.45607        2.39779
H          1.77086       -3.99549        3.36208
H          1.99781       -3.82893        1.60995
H          2.05897       -5.43190        2.37275
C         -0.21462       -5.76506        1.35983
H         -1.26599       -5.67933        1.09410
H         -0.05219       -6.71667        1.87098
H          0.39255       -5.73088        0.45549
C         -5.53352       -1.30371        5.19962
C         -6.91275       -1.52737        5.25501
H         -7.40224       -1.99539        4.41209
C         -7.63968       -1.13565        6.36278
H         -8.70513       -1.31266        6.39149
C         -7.01224       -0.51751        7.43247
H         -7.58429       -0.21704        8.29714
C         -5.64643       -0.28961        7.38429
H         -5.14401        0.18846        8.21237
C         -4.91024       -0.67520        6.28123
H         -3.84286       -0.51467        6.24951
C         -3.82768       -1.11330        3.50713
C         -4.75612        1.15407        3.79173
H         -5.71276        0.63695        3.80966
H         -4.79324        1.92555        3.02095
H         -4.59096        1.62560        4.76528
C         -2.54634        0.78515        2.78114
H         -1.67529        0.15931        2.97133
H         -2.36239        1.78765        3.16297
H         -2.72323        0.82886        1.70208
C         -1.22727       -2.29694        4.60791
C         -1.28326       -0.57295        6.17855
C         -1.61725       -1.29448        7.32911
H         -1.55363       -2.37259        7.31061
C         -2.02227       -0.63514        8.47347
H         -2.27844       -1.20539        9.35562
C         -2.10663        0.74743        8.49627
H         -2.42877        1.25880        9.39176
C         -1.76344        1.47072        7.36459
H         -1.81707        2.55058        7.37914
C         -1.34504        0.82265        6.21998
H         -1.06137        1.37751        5.33916
