59
CSD_code = OPUZOQ | q = 0 | S = 0 | Stoichiometry = C19H31B2FeNO3Si2 | MND = 5
Fe         0.83452        7.57843       11.28923
C          0.89620        7.41379        9.53746
O          0.99933        7.25370        8.39531
C         -0.89972        7.74006       11.61585
O         -2.02333        7.86778       11.84881
C          1.32601        9.26719       11.47706
O          1.64168       10.36925       11.61587
B          1.35969        6.69418       12.81029
C          1.70295        6.00342       14.13937
C          3.01945        6.03187       14.64373
C          3.35348        5.31870       15.79339
C          2.36296        4.61508       16.46281
H          2.62213        4.06360       17.35635
C          1.04641        4.61323       16.02701
C          0.71564        5.30120       14.86093
C          4.07934        6.82130       13.93464
H          4.70998        7.34821       14.64879
H          3.62898        7.54666       13.26094
H          4.71705        6.15870       13.34700
C          4.76036        5.29799       16.31417
H          5.45931        4.99761       15.53449
H          4.84827        4.60208       17.14506
H          5.05637        6.28650       16.66620
C          0.00420        3.87090       16.80849
H          0.43519        3.44221       17.70996
H         -0.42340        3.06251       16.21476
H         -0.80851        4.53683       17.09565
C         -0.71424        5.31457       14.40673
H         -1.31720        5.90293       15.09973
H         -1.13154        4.30807       14.38634
H         -0.80589        5.75862       13.41844
B          2.03705        6.16041       11.31278
N          2.92124        5.18991       10.92011
Si         2.50101        3.48070       11.21746
C          0.62209        3.38061       11.49205
H          0.36603        3.60495       12.52137
H          0.24455        2.38703       11.27044
H          0.08962        4.08917       10.86244
C          3.43123        2.90042       12.77619
H          4.50771        2.90379       12.64023
H          3.13934        1.88649       13.03191
H          3.20361        3.53014       13.63153
C          2.94570        2.41127        9.70682
H          2.39609        2.72122        8.82356
H          2.68358        1.37663        9.90559
H          4.00312        2.43668        9.46818
Si         4.39647        5.67819       10.03406
C          4.08847        5.40536        8.17479
H          4.03530        4.35664        7.90316
H          4.88664        5.85250        7.58965
H          3.15793        5.87351        7.86669
C          4.73934        7.52383       10.33834
H          3.81925        8.10218       10.29192
H          5.41297        7.91268        9.58110
H          5.19639        7.71260       11.30429
C          5.87252        4.65429       10.66964
H          6.04309        4.79553       11.73246
H          6.77607        4.96316       10.15411
H          5.74589        3.59171       10.49486
