68
CSD_code = OROROD | q = 0 | S = 0 | Stoichiometry = C25H35CrNO5Si | MND = 9
Cr         1.77987       11.63827        3.48626
Si        -0.45846        8.20416        3.80630
O          1.20269       14.84948        4.18159
O         -0.91314        9.74580        4.18323
O          2.76035       10.96650        0.75872
O          3.46637        9.28957        4.16834
O          4.50721       12.81642        3.59731
N         -4.82533       14.59645        0.68463
C          0.72832       13.57687        4.08179
C          0.09041       13.05886        2.95650
H         -0.09032       13.67820        2.08742
C         -0.42446       11.73988        2.95712
C         -0.31266       10.95706        4.11518
C          0.36848       11.46747        5.25563
C          0.43147       10.60858        6.49191
H          1.18235        9.83084        6.33191
H         -0.53106       10.10646        6.62264
C          0.79709       11.40205        7.74198
H          1.03059       10.71129        8.55334
H         -0.04912       12.01721        8.05826
C          1.98869       12.30169        7.43886
H          2.79777       11.70601        7.00943
H          2.35685       12.77386        8.35049
C          1.56019       13.37071        6.44211
H          2.42028       13.95580        6.10927
H          0.86458       14.06940        6.92114
C          0.88893       12.76553        5.23974
C          1.42466       15.57063        2.98830
H          1.97033       16.46435        3.28491
H          2.03061       14.98701        2.28723
H          0.48448       15.86750        2.51283
C         -1.23818       11.28822        1.77659
H         -1.28481       10.20061        1.75221
H         -0.76865       11.63420        0.85227
C         -2.66268       11.84961        1.86706
H         -2.62551       12.94156        1.91345
H         -3.12661       11.49571        2.79198
C         -3.51030       11.42548        0.67081
H         -3.58571       10.33686        0.63917
H         -3.02924       11.75822       -0.25197
C         -4.92504       12.01541        0.74461
H         -5.41771       11.70496        1.67071
H         -5.52688       11.66960       -0.10032
C         -4.88312       13.45500        0.71148
C          0.64355        7.40758        5.14207
H          1.65204        7.80836        5.11260
H          0.25463        7.54388        6.14684
H          0.72622        6.33910        4.97062
C          0.47875        8.12426        2.15084
H          1.17537        8.95818        2.07474
H          1.06217        7.21257        2.08245
H         -0.17042        8.15341        1.28052
C         -2.17450        7.32996        3.75105
C         -3.11222        7.98388        2.73353
H         -4.07338        7.46981        2.71915
H         -3.28707        9.02417        2.99468
H         -2.69100        7.93754        1.73135
C         -2.84718        7.37991        5.12502
H         -3.82269        6.89528        5.08933
H         -2.24269        6.86810        5.86929
H         -2.98902        8.40963        5.44445
C         -1.97631        5.86708        3.35651
H         -2.93451        5.35030        3.31308
H         -1.50264        5.78979        2.38137
H         -1.34897        5.35387        4.07993
C          2.33478       11.22651        1.80490
C          2.77187       10.18409        3.91408
C          3.43143       12.39079        3.56531
