92
CSD_code = OVIQAM | q = 0 | S = 0 | Stoichiometry = C33H53N2OSi2Y | MND = 5
Y          0.29732        4.67304        6.48657
N         -0.82645        3.89423        8.64284
N          1.29110        2.71279        7.35078
O          2.54021        5.04348        4.85644
Si        -2.71972        3.56490        4.99512
Si         1.33198        7.61093        8.22968
C         -1.81736        4.48538        9.28204
H         -2.05739        5.49607        8.97239
C         -2.53599        3.87557       10.31613
H         -3.34268        4.40873       10.79544
C         -2.19537        2.60563       10.69385
H         -2.72902        2.09387       11.48260
C         -1.12375        1.94486       10.05609
C         -0.70826        0.65625       10.41559
H         -1.22505        0.13470       11.20656
C          0.35426        0.07977        9.75626
H          0.67585       -0.91599       10.02921
C          1.02785        0.74538        8.74678
H          1.85692        0.26142        8.25066
C          0.66263        2.03556        8.33229
C         -0.45534        2.64793        9.00980
C          2.49637        2.16733        6.86355
C          3.68373        2.31962        7.60471
C          4.87239        1.82554        7.08762
H          5.78732        1.94003        7.65017
C          4.90577        1.17626        5.86770
H          5.83824        0.78925        5.48364
C          3.73513        1.01006        5.15171
H          3.76388        0.47465        4.21383
C          2.52657        1.49484        5.62976
C          3.68154        3.01755        8.94634
H          2.65927        3.34083        9.16785
C          4.57008        4.26320        8.91883
H          5.60514        4.00276        8.70904
H          4.53274        4.76778        9.88190
H          4.22359        4.95711        8.15586
C          4.11857        2.06226       10.05878
H          3.46296        1.19499       10.08932
H          4.06864        2.56393       11.02305
H          5.13899        1.72039        9.90153
C          1.24959        1.24470        4.85953
H          0.44814        1.84264        5.31443
C          0.85854       -0.23177        4.96944
H          1.63876       -0.86885        4.55736
H         -0.06426       -0.41974        4.42412
H          0.70431       -0.50481        6.01081
C          1.37184        1.66257        3.39318
H          1.67653        2.70490        3.32769
H          0.41128        1.54819        2.89408
H          2.09918        1.05037        2.86444
C          0.14000        7.00045        6.90990
H          0.30011        7.57115        5.98691
H         -0.88955        7.22087        7.22008
C         -1.06327        4.35015        4.56160
H         -1.25127        5.32269        4.08774
H         -0.54443        3.73969        3.81611
C          1.35451        6.38992        9.70767
H          0.40119        6.38810       10.22846
H          2.11857        6.65310       10.43319
H          1.55020        5.37069        9.37581
C          0.96642        9.34947        8.95453
H          0.96685       10.10716        8.17714
H          1.70351        9.64077        9.69668
H         -0.00752        9.37536        9.43343
C          3.09424        7.68098        7.47882
H          3.30805        6.77098        6.92492
H          3.85557        7.79261        8.24402
H          3.19384        8.51730        6.79416
C         -2.47830        1.91706        5.94414
H         -2.06227        1.14767        5.30164
H         -3.42480        1.54191        6.32194
H         -1.81109        2.03450        6.79498
C         -3.85302        3.15952        3.49876
H         -4.04932        4.04575        2.90343
H         -4.81093        2.76102        3.81849
H         -3.39475        2.42332        2.84562
C         -3.67779        4.79386        6.11431
H         -2.98835        5.39532        6.70434
H         -4.34182        4.27884        6.80113
H         -4.28338        5.47272        5.52267
C          2.39420        5.75269        3.62777
H          2.63460        6.81202        3.79370
H          1.35363        5.66574        3.31112
C          3.39234        5.12277        2.63811
H          2.88439        4.47811        1.92328
H          3.92237        5.89410        2.08278
C          4.33861        4.31484        3.54099
H          5.38734        4.51923        3.34064
H          4.16460        3.24558        3.43272
C          3.93286        4.76105        4.94699
H          4.47623        5.67553        5.22654
H          4.08031        3.99562        5.70665
