71
CSD_code = PAHDOR | q = 0 | S = 0 | Stoichiometry = C22H42F2Si4Ti | MND = 12
Ti         2.44639        4.52327        9.29247
F          3.62885        5.01917        8.08850
Si         0.25192        2.12743       11.32142
Si         4.18604        2.12348        7.03848
C          1.06751        2.62690        9.70349
C          2.33275        2.13530        9.30063
C          2.60439        2.53071        7.97662
C          1.47129        3.26789        7.53488
C          0.52831        3.29918        8.57260
C          1.48935        2.40707       12.75817
C         -1.37200        3.08410       11.65651
C         -0.18231        0.26670       11.20759
C          4.13498        0.27556        6.54179
C          5.66488        2.43476        8.21014
C          4.31224        3.19083        5.45763
H          2.98074        1.51659        9.90844
H          1.31976        3.62578        6.52510
H         -0.49105        3.64706        8.48413
H          1.02533        2.90203       13.60643
H          2.33109        3.01642       12.43478
H          1.89069        1.46388       13.11682
H         -1.93532        2.59117       12.44278
H         -1.19320        4.10522       11.97880
H         -2.00908        3.11576       10.77759
H          0.69373       -0.33173       10.97700
H         -0.91926        0.07723       10.43309
H         -0.59156       -0.09450       12.14589
H          3.31550        0.06739        5.86185
H          5.05528       -0.00876        6.04348
H          4.01541       -0.36920        7.40627
H          5.50581        3.35410        8.77138
H          6.60160        2.52817        7.66919
H          5.77908        1.62698        8.92774
H          4.34221        4.24648        5.70864
H          5.21410        2.95576        4.90111
H          3.46795        3.02620        4.79444
F          3.62891        4.02753       10.49648
C          1.06760        6.41951        8.88156
C          2.33287        6.91111        9.28433
C          2.60446        6.51591       10.60841
C          1.47138        5.77877       11.05024
C          0.52839        5.74739       10.01256
Si         0.25205        6.91903        7.26364
H          2.98078        7.52985        8.67648
Si         4.18612        6.92306       11.54653
H          1.31998        5.42086       12.06002
H         -0.49097        5.39951       10.10108
C          1.48937        6.63918        5.82684
C         -1.37205        5.96257        6.92865
C         -0.18212        8.77980        7.37727
C          4.13510        8.77100       12.04309
C          5.66487        6.61154       10.37481
C          4.31196        5.85585       13.12751
H          1.02580        6.14058        4.98004
H          2.33287        6.03264        6.15152
H          1.88808        7.58272        5.46531
H         -1.93531        6.45548        6.14234
H         -1.19326        4.94146        6.60637
H         -2.00921        5.93090        7.80751
H          0.69398        9.37817        7.60769
H         -0.91901        8.96958        8.15176
H         -0.59135        9.14092        6.43893
H          3.31557        8.97919       12.72297
H          5.05536        9.05533       12.54146
H          4.01558        9.41573       11.17858
H          5.50570        5.69217        9.81366
H          6.60165        6.51813       10.91564
H          5.77902        7.41925        9.65713
H          4.34169        4.80014       12.87667
H          5.21380        6.09077       13.68413
H          3.46762        6.02081       13.79055
