104
CSD_code = PAQRIJ | q = 0 | S = 0 | Stoichiometry = C38H62N2SiTi | MND = 6
Ti         2.82061       11.18373        3.89514
H          5.15140       13.30173        7.53346
H          1.45762       15.15442        4.63310
N          4.07722       11.26844        5.41530
C          4.08639       12.54096        5.82481
C          3.01159       13.40094        5.66492
C          1.67003       13.11117        5.27898
C          1.15917       11.83015        5.24485
C          4.99186       10.33859        5.92833
C          5.94867        9.73206        5.09533
C          6.83294        8.81387        5.64404
C          6.77069        8.46602        6.97896
C          5.81019        9.04137        7.78805
C          4.92456        9.98562        7.29294
C          3.87490       10.56642        8.21917
C          2.77695        9.52877        8.47041
C          4.47251       11.04274        9.54560
C          6.07189       10.09879        3.63233
C          5.95607        8.86357        2.73464
C          7.40669       10.81237        3.38877
C          5.32949       13.11633        6.47437
C          0.83633       14.34298        5.00994
C         -0.25329       11.36772        4.91852
C         -0.30594        9.85622        5.18400
C         -0.56406       11.56697        3.42539
C         -1.31659       12.04603        5.79761
N          2.64063        9.61966        3.26492
C          2.43693        8.38990        2.77945
C          2.27194        8.16567        1.38018
C          1.99178        6.90028        0.90614
C          1.90356        5.81228        1.75710
C          2.11856        6.00022        3.11031
C          2.37882        7.25101        3.63646
C          2.64032        7.40063        5.11814
C          1.50579        6.80773        5.95887
C          3.96214        6.72609        5.49405
C          2.40629        9.32980        0.42748
C          3.32797        9.00798       -0.74992
C          1.02865        9.76466       -0.08095
C          2.75770       12.54150        2.27999
Si         4.31246       13.27018        1.51749
C          3.98649       14.77738        0.36865
C          5.25042       11.98783        0.44738
C          5.46842       13.93407        2.89883
H          3.21510       14.44174        5.88861
H          7.58823        8.36301        5.01825
H          7.46426        7.74623        7.38692
H          5.75502        8.75340        8.82677
H          3.40600       11.43287        7.74176
H          2.31110        9.23952        7.53029
H          2.01295        9.93797        9.12943
H          3.19279        8.63760        8.93532
H          4.77455       10.20304       10.16588
H          5.34439       11.67052        9.37435
H          3.73390       11.61910       10.09978
H          5.23755       10.77831        3.36017
H          7.52514       11.65888        4.06286
H          8.23898       10.13132        3.55384
H          7.45647       11.17732        2.36643
H          6.12719        9.14236        1.69717
H          6.68846        8.10617        3.00398
H          4.95784        8.43770        2.81636
H          6.17034       12.43035        6.38152
H          5.59245       14.06575        6.01154
H          0.38528       14.67884        5.94564
H          0.04059       14.16445        4.29401
H          0.44974        9.35337        4.57408
H         -0.12395        9.64191        6.23677
H         -1.28481        9.45710        4.92351
H          0.19858       11.04437        2.83316
H         -0.57450       12.61611        3.13599
H         -1.54219       11.14867        3.19106
H         -1.45747       13.09056        5.53968
H         -1.03182       11.98578        6.84642
H         -2.27226       11.54018        5.67479
H          1.73928       11.07881        5.80095
H          1.84241        6.75089       -0.15353
H          1.68414        4.82866        1.36875
H          2.07995        5.14494        3.76991
H          2.73502        8.48096        5.32671
H          0.54176        7.20386        5.65097
H          1.65681        7.02879        7.01382
H          1.47680        5.72658        5.84784
H          3.91312        5.65733        5.29756
H          4.77911        7.14677        4.91540
H          4.17885        6.87587        6.54985
H          2.84937       10.15767        1.00007
H          3.51404        9.90734       -1.33299
H          4.27942        8.62238       -0.39178
H          2.88321        8.26595       -1.40864
H          0.56537        8.96424       -0.65451
H          0.37759       10.00500        0.75763
H          1.11633       10.64188       -0.71962
H          2.22093       13.36922        2.77200
H          2.09835       12.20338        1.46919
H          3.51983       15.59767        0.90679
H          3.32618       14.50937       -0.45078
H          4.90724       15.15530       -0.06559
H          4.84424       11.96508       -0.55863
H          6.30561       12.22982        0.36159
H          5.16068       10.98719        0.85872
H          6.40877       14.29346        2.49181
H          5.00506       14.76607        3.42272
H          5.69896       13.16540        3.63082
