79
CSD_code = PASTEI | q = 0 | S = 0 | Stoichiometry = C24H48O2P2RuSi2 | MND = 6
Ru        -0.00009        0.00008        0.00032
P          1.21210        1.88581        0.61664
Si         4.21290       -2.83852       -0.39079
O         -0.32160       -0.65250        2.91881
C         -0.17724       -0.42647        1.80208
C          1.70737       -1.09426       -0.20001
C          2.70748       -1.77664       -0.29329
C          5.07331       -2.61947       -2.08074
C          3.70418       -4.66901       -0.18037
C          5.42987       -2.36112        1.00171
C          0.44876        2.82936        2.00672
C          1.17536        4.08886        2.46155
C          2.96165        1.63341        1.14245
C          3.07866        0.73439        2.36561
C          1.46424        3.16493       -0.68782
C          0.15611        3.79919       -1.14503
H          4.40901       -2.88818       -2.89677
H          5.96167       -3.24004       -2.16083
H          5.37706       -1.58823       -2.23453
H          3.19073       -4.82595        0.76377
H          4.56751       -5.32830       -0.19956
H          3.03360       -4.98474       -0.97477
H          4.96191       -2.45117        1.97757
H          5.76557       -1.33384        0.89315
H          6.31076       -2.99714        0.99865
H          0.35388        2.12613        2.84119
H         -0.56839        3.06310        1.67345
H          0.61783        4.55582        3.27165
H          1.25951        4.81192        1.65425
H          2.17275        3.86131        2.83061
H          3.42373        2.60844        1.32451
H          3.46605        1.16067        0.29322
H          2.63122       -0.23586        2.15291
H          2.58143        1.17299        3.22881
H          4.12519        0.57516        2.61710
H          1.95034        2.65134       -1.52519
H          2.15777        3.92510       -0.31495
H         -0.58505        3.03148       -1.36679
H          0.31698        4.39690       -2.04033
H         -0.25656        4.44305       -0.37217
P         -1.21192       -1.88581       -0.61642
C          0.17701        0.42657       -1.80147
C         -1.70743        1.09459        0.20041
C         -0.44857       -2.82940       -2.00642
C         -2.96158       -1.63358       -1.14197
C         -1.46395       -3.16482        0.68818
O          0.32107        0.65271       -2.91821
C         -2.70763        1.77683        0.29334
C         -1.17508       -4.08897       -2.46115
H         -0.35383       -2.12613       -2.84086
H          0.56861       -3.06299       -1.67315
C         -3.07876       -0.73468       -2.36519
H         -3.42360       -2.60867       -1.32388
H         -3.46595       -1.16081       -0.29273
C         -0.15580       -3.79888        1.14561
H         -1.95021       -2.65128        1.52550
H         -2.15733       -3.92514        0.31533
Si        -4.21314        2.83861        0.39013
H         -0.61765       -4.55578       -3.27140
H         -1.25894       -4.81208       -1.65387
H         -2.17259       -3.86154       -2.82998
H         -2.63142        0.23563       -2.15261
H         -2.58153       -1.17330       -3.22837
H         -4.12532       -0.57560       -2.61662
H          0.58523       -3.03106        1.36744
H         -0.31669       -4.39658        2.04092
H          0.25705       -4.44270        0.37284
C         -5.07410        2.61954        2.07979
C         -3.70435        4.66908        0.17978
C         -5.42952        2.36094       -1.00278
H         -4.41008        2.88827        2.89605
H         -5.96248        3.24011        2.15956
H         -5.37790        1.58829        2.23351
H         -3.19062        4.82592       -0.76422
H         -4.56775        5.32829        0.19862
H         -3.03403        4.98491        0.97436
H         -4.96119        2.45104       -1.97845
H         -5.76513        1.33361       -0.89435
H         -6.31049        2.99685       -1.00009
