71
CSD_code = PAZJOP | q = 0 | S = 0 | Stoichiometry = C31H32CrO6Si | MND = 9
Cr         3.33808        3.95905        7.92840
Si         7.38272        0.23437        9.67310
O          7.04941        1.40155        8.57270
O          9.58686        3.19279        6.14517
O          8.66211        4.00418        4.27345
O          4.00306        6.81119        7.41191
O          0.63043        5.16734        8.20956
O          3.61856        5.00806       10.69635
C          6.35307        2.61224        8.75891
C          7.04715        3.75449        7.99695
C          6.46320        3.70368        6.57467
C          5.08796        3.13971        6.80918
C          3.99987        3.08372        5.92235
C          2.84150        2.41932        6.33117
C          2.78225        1.77394        7.58676
C          3.87170        1.81077        8.45743
C          5.02022        2.51695        8.06263
C          7.26475        2.73888        5.67350
C          8.63804        3.30984        5.41530
C          9.89135        4.63972        3.94717
C          5.78130       -0.21951       10.59726
C          4.97817       -1.31260       10.28582
C          3.77618       -1.53390       10.93628
C          3.34505       -0.65651       11.91638
C          4.13035        0.43521       12.24815
C          5.33320        0.64363       11.59785
C          8.59268        0.85405       10.99431
C          8.68413        0.24043       12.24196
C          9.58542        0.68325       13.19268
C         10.41727        1.75481       12.91338
C         10.34260        2.37692       11.67874
C          9.44060        1.92729       10.73156
C          8.21959       -1.09824        8.57902
C          8.49433       -2.34725        9.41495
C          9.55728       -0.54893        8.07479
C          7.36613       -1.47377        7.36708
C          3.75215        5.69464        7.57593
C          1.65942        4.65996        8.08014
C          3.50418        4.56810        9.63452
H          6.26168        2.82894        9.82750
H          6.79349        4.70339        8.47039
H          8.12724        3.62408        7.99899
H          6.43260        4.69226        6.10767
H          4.07578        3.50413        4.92648
H          2.00770        2.32016        5.64604
H          1.90488        1.19351        7.84464
H          3.85850        1.25868        9.38835
H          7.36923        1.78590        6.19407
H          6.75084        2.60106        4.72165
H         10.14700        5.38022        4.70740
H         10.69451        3.90273        3.89033
H          9.74093        5.11828        2.98330
H          5.29416       -2.00594        9.52112
H          3.17334       -2.39235       10.67584
H          2.40493       -0.82361       12.42115
H          3.80452        1.12531       13.01237
H          5.94167        1.49335       11.87423
H          8.03430       -0.59322       12.46874
H          9.64002        0.19296       14.15420
H         11.12125        2.10279       13.65537
H         10.99025        3.21196       11.45341
H          9.39378        2.41139        9.76739
H          9.12737       -2.10379       10.26521
H          7.57178       -2.77996        9.79446
H          9.00402       -3.10209        8.81658
H          9.41277        0.35995        7.49614
H         10.21752       -0.31940        8.90795
H         10.05243       -1.28406        7.44041
H          6.42400       -1.92570        7.66696
H          7.14363       -0.59286        6.77012
H          7.89745       -2.18774        6.73756
