63
CSD_code = PAZMAF | q = 0 | S = 0 | Stoichiometry = C23H32AsO3PSi2W | MND = 8
W          0.60801        0.73566        4.97440
P          2.18301        0.65587        6.62332
As         4.51471        0.66293        8.61556
O          0.71566       -2.34104        4.50885
O         -1.56296       -0.30564        6.94093
O          3.30734        1.79727        6.43137
Si         2.78467       -1.96259        7.98637
Si         1.49403        0.65412        9.55879
C          0.70252       -1.20060        4.71454
C         -0.72990        0.09123        6.23262
C         -0.45663        2.64532        4.18396
H         -1.28760        3.17547        4.63527
C         -0.56366        1.63043        3.19461
H         -1.48363        1.28938        2.73860
C          0.74629        1.34663        2.72793
H          0.99075        0.70601        1.88871
C          1.65298        2.15860        3.43785
H          2.71274        2.25445        3.23398
C          0.90878        2.96150        4.33857
H          1.30730        3.77450        4.93463
C          2.70364       -0.05022        8.21187
C          3.95410       -2.19324        6.49422
H          4.93309       -1.75115        6.68139
H          3.52413       -1.70430        5.62024
H          4.10523       -3.23831        6.24446
C          1.09684       -2.76894        7.66748
H          0.39925       -2.05737        7.23757
H          0.65811       -3.17341        8.57258
H          1.20064       -3.58457        6.95988
C          3.60586       -2.65894        9.56543
H          3.81044       -3.71765        9.45452
H          2.96354       -2.53892       10.43149
H          4.54865       -2.15621        9.77497
C         -0.00029       -0.46110        9.92313
H         -0.61818        0.00518       10.68358
H          0.30244       -1.43304       10.29634
H         -0.61939       -0.61249        9.04712
C          0.94105        2.38069        8.96592
H          0.36348        2.90575        9.72034
H          0.32034        2.28571        8.07503
H          1.79615        3.00616        8.71322
C          2.50968        0.85067       11.17184
H          3.16065        1.72198       11.12831
H          3.13720       -0.01979       11.34777
H          1.85555        0.96810       12.02849
C          4.41697        1.84810        7.24232
C          5.38448        2.86011        6.88426
C          6.56168        3.00706        7.62835
H          6.72906        2.34029        8.47249
C          7.48520        3.97330        7.30131
H          8.38750        4.07285        7.88773
C          7.27124        4.83458        6.22644
C          6.10630        4.68873        5.48415
H          5.92418        5.34689        4.64596
C          5.17583        3.72070        5.80249
H          4.27431        3.62436        5.21592
C          8.29912        5.86266        5.85411
H          8.79188        6.23598        6.75438
H          7.81620        6.70480        5.35417
C          9.34972        5.25781        4.91960
H          9.85885        4.42965        5.40770
H         10.08857        6.00641        4.64311
H          8.87872        4.88312        4.01336
