54
CSD_code = PEMTAC | q = 0 | S = 0 | Stoichiometry = C22H24CrN2O4Si | MND = 6
Cr         0.00023        2.40743        3.09495
Si         1.94981        3.36887        2.05025
O         -1.41035        1.18372        0.74425
O         -2.36516        1.26580        4.51103
O          0.35033        3.52661        5.85809
O         -2.10611        4.51155        2.82388
N          1.46998        0.44811        3.39992
N          1.92041        3.55351       -0.23843
C         -0.74360        1.63003        1.58792
C         -1.40429        1.63048        3.97228
C          0.36930        3.09608        4.78239
C         -1.22777        3.75344        2.89448
C          3.64976        2.40445        2.08977
C          4.87532        3.07097        2.09517
C          6.07680        2.39882        2.22702
C          6.07640        1.02307        2.36893
C          4.87192        0.34316        2.38894
C          3.66020        1.01326        2.25768
C          2.39966        0.18188        2.27907
C          2.22055        0.50642        4.65430
C          0.55096       -0.69013        3.47497
C          2.62170        5.16103        1.82203
C          2.62311        6.11605        2.82971
C          3.04611        7.41100        2.58109
C          3.46232        7.77172        1.31080
C          3.45254        6.83644        0.28829
C          3.03502        5.54252        0.54465
C          3.01756        4.47329       -0.51226
C          0.64649        4.16422       -0.58263
C          2.08173        2.28013       -0.91118
H          4.88532        4.14653        1.99730
H          7.00829        2.94576        2.22179
H          7.00499        0.48176        2.47269
H          4.87869       -0.73201        2.50941
H          1.83882        0.32590        1.35043
H          2.70902       -0.87574        2.32142
H          1.52915        0.64369        5.48469
H          2.79099       -0.41852        4.82262
H          2.91626        1.34436        4.63717
H         -0.15080       -0.54517        4.29401
H         -0.01262       -0.77714        2.54691
H          1.09471       -1.63203        3.64484
H          2.28826        5.83854        3.81878
H          3.04688        8.14205        3.37600
H          3.78829        8.78191        1.11211
H          3.77111        7.11720       -0.70617
H          2.93398        4.90888       -1.51732
H          3.95525        3.91006       -0.46222
H          0.56597        4.33294       -1.66200
H         -0.16954        3.52105       -0.26023
H          0.55320        5.11771       -0.06803
H          2.99330        1.79650       -0.56286
H          2.13701        2.39935       -1.99936
H          1.23023        1.64300       -0.67797
