108
CSD_code = PEYXAV | q = 0 | S = 0 | Stoichiometry = C56H43NORuS4Si2 | MND = 6
Ru        12.17585        0.70011       19.91785
S         13.48859        1.84248       18.23539
S         13.57558        1.68820       21.53732
S         10.53972        0.10125       18.33071
S         10.69915       -0.18393       21.62154
Si        14.90209        4.05100       16.63193
Si         8.21991       -0.68206       23.37225
N         11.12219        2.40573       20.07228
O         13.73719       -1.84416       19.69005
C         13.14385       -0.87254       19.77643
C         14.39978        2.95782       19.19097
C         15.11833        3.95677       18.50898
C         15.89957        4.83901       19.22949
H         16.44396        5.60539       18.69722
C         16.00014        4.75788       20.61291
H         16.62521        5.44830       21.15805
C         15.29041        3.78444       21.28724
H         15.35278        3.69465       22.36191
C         14.47949        2.90651       20.58254
C         12.23743        2.76582       22.19154
H         11.70646        2.12925       22.90743
H         12.69053        3.60723       22.71559
C          9.22327       -0.38466       20.74449
C          8.06433       -0.67617       21.48688
C          6.87301       -0.89454       20.82279
H          5.98768       -1.11335       21.40182
C          6.79312       -0.84197       19.43668
H          5.85620       -1.02794       18.93455
C          7.92562       -0.54689       18.70442
H          7.89471       -0.50267       17.62554
C          9.12506       -0.29817       19.35586
C         10.12785        1.84882       17.93538
H         10.87309        2.13702       17.18628
H          9.13234        1.88175       17.49286
C         11.29891        3.21625       21.12195
C         10.61536        4.41681       21.24127
H         10.81002        5.05883       22.08464
C          9.67204        4.75286       20.28530
H          9.10682        5.66793       20.36828
C          9.46831        3.89144       19.22087
H          8.74161        4.11019       18.45574
C         10.23705        2.74115       19.12686
C         13.04643        4.26606       16.29089
C         12.30832        5.16701       17.05343
H         12.79867        5.71058       17.85003
C         10.96431        5.38064       16.80734
H         10.41530        6.10050       17.39875
C         10.32697        4.68176       15.79559
H          9.27837        4.85112       15.59410
C         11.04169        3.76647       15.04022
H         10.54761        3.21304       14.25403
C         12.38921        3.56605       15.28549
H         12.94088        2.84936       14.69546
C         15.69060        2.60225       15.70745
C         15.74656        2.62744       14.31618
H         15.32892        3.47247       13.78592
C         16.33496        1.59662       13.60722
H         16.36655        1.63228       12.52727
C         16.88611        0.51982       14.28182
H         17.34516       -0.28810       13.73024
C         16.85061        0.48594       15.66529
H         17.28328       -0.34911       16.19730
C         16.26014        1.51993       16.36903
H         16.23748        1.48458       17.44804
C         15.79405        5.61114       16.02119
C         17.18432        5.62815       15.95749
H         17.73526        4.75027       16.26533
C         17.86705        6.74183       15.50441
H         18.94710        6.73520       15.46383
C         17.16569        7.86544       15.09928
H         17.69545        8.73729       14.74318
C         15.78230        7.86350       15.14872
H         15.22901        8.73533       14.82877
C         15.10705        6.74525       15.60520
H         14.02666        6.74976       15.63554
C          9.22065       -2.13808       24.04579
C          9.88304       -3.03415       23.21409
H          9.85219       -2.88909       22.14451
C         10.58459       -4.10536       23.73704
H         11.09682       -4.78831       23.07466
C         10.63148       -4.30195       25.10655
H         11.18028       -5.13746       25.51696
C          9.96752       -3.42564       25.94894
H          9.99452       -3.57821       27.01879
C          9.26743       -2.35710       25.42033
H          8.73966       -1.68272       26.08088
C          8.89027        1.01810       23.88767
C          8.36336        2.16878       23.30784
H          7.59792        2.07489       22.54904
C          8.79803        3.42547       23.68778
H          8.36004        4.30642       23.23894
C          9.78432        3.55387       24.65164
H         10.12168        4.53431       24.95787
C         10.33389        2.41857       25.22452
H         11.10879        2.51279       25.97230
C          9.88590        1.16449       24.84687
H         10.31943        0.28272       25.29486
C          6.47465       -0.86836       24.09476
C          5.80745        0.18478       24.70863
H          6.29019        1.14954       24.77493
C          4.54065        0.01667       25.23953
H          4.03905        0.84856       25.71379
C          3.91631       -1.21657       25.16548
H          2.92698       -1.35046       25.57885
C          4.56864       -2.27942       24.56265
H          4.08859       -3.24613       24.50577
C          5.83508       -2.10320       24.03664
H          6.34411       -2.93737       23.57400
