43
CSD_code = PIKSUZ | q = 0 | S = 0 | Stoichiometry = C17H22ORuSi2 | MND = 9
Ru         2.54633        4.61079        2.11095
Si         0.42270        4.96077        3.18541
Si         1.22544        3.16548        0.71521
O          2.83447        2.25092        3.93112
C          2.82367        6.89367        2.00659
C          2.68577        6.38963        0.69680
C          3.58661        5.40606        0.22285
C          4.57743        4.89215        1.06909
C          4.64715        5.33700        2.40883
C          3.80530        6.37480        2.86598
C         -0.72158        3.48045        2.76435
C         -1.87500        3.18104        3.47437
C         -2.66700        2.09959        3.12655
C         -2.31231        1.30885        2.04782
C         -1.16895        1.60665        1.32547
C         -0.36334        2.68106        1.67271
C         -0.55964        6.51250        2.56708
C          0.51304        5.17317        5.10294
C          0.55216        3.99173       -0.90238
C          2.13631        1.57218        0.11414
C          2.69517        3.15622        3.22486
H          2.22214        7.73929        2.32213
H          1.99308        6.86105        0.00645
H          3.56525        5.11798       -0.82252
H          5.31606        4.19533        0.68960
H          5.44890        4.97936        3.04842
H          3.95922        6.80756        3.84764
H         -2.15651        3.79721        4.31653
H         -3.55806        1.87265        3.69548
H         -2.92534        0.46206        1.77136
H         -0.89645        0.98766        0.48245
H         -1.60099        6.42202        2.85679
H         -0.17986        7.43276        2.99919
H         -0.53078        6.60675        1.48618
H          0.88924        4.27201        5.57518
H          1.16776        5.99342        5.38115
H         -0.46785        5.38443        5.51457
H          0.04689        4.92879       -0.69147
H          1.33700        4.18372       -1.62703
H         -0.17060        3.33296       -1.37208
H          3.03524        1.81570       -0.44396
H          2.42418        0.94929        0.95427
H          1.49754        0.98480       -0.53630
