63
CSD_code = PIQJUU | q = 0 | S = 0 | Stoichiometry = C19H30N3O7PSi2W | MND = 6
W         -0.40096        0.71800        2.86435
P         -1.72954        2.59973        3.64150
Si        -2.68107        2.46861        6.50314
Si        -4.69003        3.39729        4.01692
N         -2.15468        3.55804        2.33300
N         -1.53553        5.53727        1.31162
N          1.86596        4.75401        2.77510
O          1.26023       -1.67272        1.70940
O         -2.88742        0.22190        1.02021
O          0.49775        2.77883        0.68113
O          1.96330        1.68191        4.69050
O         -1.75638       -1.17491        4.96770
O         -0.89631        3.82431        4.41623
O         -0.93692        6.11217        4.16314
C          0.65554       -0.80223        2.13795
C         -1.96586        0.34404        1.68595
C          0.25087        1.98815        1.47117
C          1.11633        1.27254        4.04378
C         -1.21030       -0.49038        4.22957
C         -3.20558        2.36174        4.65542
H         -3.45663        1.31314        4.46833
C         -0.88405        1.91291        6.81171
H         -0.66927        1.86432        7.87600
H         -0.17197        2.59640        6.36214
H         -0.69583        0.92614        6.39679
C         -2.92458        4.25314        7.13756
H         -3.97636        4.50581        7.22225
H         -2.46842        4.97477        6.46995
H         -2.47692        4.37783        8.11878
C         -3.81118        1.26941        7.46294
H         -3.60623        1.33028        8.52592
H         -3.64748        0.24081        7.15789
H         -4.86159        1.49276        7.31819
C         -4.34383        5.27696        3.95431
H         -3.30912        5.51241        4.17702
H         -4.96448        5.81555        4.66409
H         -4.55687        5.67365        2.96608
C         -5.19535        2.70351        2.31166
H         -5.62808        1.71163        2.41002
H         -4.33879        2.62292        1.65090
H         -5.93617        3.33426        1.82888
C         -6.16743        3.10969        5.19093
H         -7.04798        3.60563        4.79784
H         -5.98976        3.49902        6.18697
H         -6.40389        2.05552        5.28446
C         -1.49774        4.66247        2.30923
C         -0.71721        6.72342        1.23771
H         -1.26582        7.48849        0.68810
H          0.22169        6.51716        0.71432
H         -0.49888        7.10027        2.23322
C         -2.27220        5.20688        0.11233
H         -2.78137        4.25958        0.26539
H         -1.58632        5.11939       -0.73284
H         -3.00482        5.98747       -0.09938
C         -0.61506        4.89808        3.56371
C          0.78384        4.82663        3.13609
C         -0.15374        6.43338        5.31769
H          0.89113        6.58558        5.01398
H         -0.19337        5.59781        6.02586
C         -0.73097        7.69473        5.93244
H         -0.68984        8.51251        5.21794
H         -0.15767        7.96246        6.81496
H         -1.76758        7.53232        6.21509
