103
CSD_code = PIWMIS | q = 0 | S = 0 | Stoichiometry = C38H60MoN2OSi | MND = 4
Mo         2.06540        3.30308        2.92113
C          1.60239        3.71872        1.08473
H          2.08675        4.65610        0.75673
C          0.92923        3.08796       -0.09981
C          0.08317        1.87127        0.29905
H          0.68716        1.12662        0.81127
H         -0.35641        1.41631       -0.58723
H         -0.71325        2.18760        0.96919
C         -0.00176        4.12007       -0.75543
H          0.55741        4.97968       -1.11984
H         -0.71913        4.46653       -0.01360
H         -0.55531        3.67859       -1.58137
C          2.04010        2.62185       -1.03491
C          2.10511        2.95081       -2.38226
H          1.34010        3.55885       -2.83818
C          3.15422        2.50341       -3.17003
H          3.18634        2.77301       -4.21609
C          4.15465        1.71880       -2.62781
H          4.97146        1.37338       -3.24436
C          4.09873        1.37962       -1.28548
H          4.87241        0.76411       -0.84987
C          3.05359        1.82893       -0.50233
H          3.01203        1.57432        0.55350
N          1.37348        1.73627        3.20831
C          0.98973        0.48128        3.50917
C         -0.36466        0.21636        3.83014
C         -1.35214        1.35820        3.87919
H         -0.88144        2.22944        3.39637
C         -2.64955        1.03539        3.13708
H         -3.26370        1.93015        3.06093
H         -3.22474        0.27624        3.66158
H         -2.43506        0.67359        2.13414
C         -1.64297        1.73039        5.33603
H         -0.71826        1.98378        5.84977
H         -2.11295        0.89879        5.85765
H         -2.30569        2.59179        5.37984
C         -0.74700       -1.07656        4.13572
H         -1.77518       -1.28184        4.39324
C          0.16554       -2.11703        4.11858
H         -0.15283       -3.12221        4.35219
C          1.48910       -1.86327        3.80855
H          2.19540       -2.68081        3.80293
C          1.92314       -0.58318        3.51165
C          3.37859       -0.32157        3.20058
H          3.50039        0.76723        3.01992
C          3.81412       -1.06778        1.93745
H          3.15832       -0.82531        1.10435
H          3.77820       -2.14279        2.09819
H          4.83326       -0.79500        1.66975
C          4.26526       -0.70814        4.38696
H          3.98066       -0.14514        5.27354
H          5.31048       -0.50315        4.16285
H          4.16795       -1.76790        4.61036
N          0.73790        4.46285        3.84271
C         -0.07713        5.48608        3.46222
H         -0.26189        5.67380        2.41601
C         -0.56697        6.13730        4.56342
H         -1.23189        6.97925        4.57125
C         -0.02444        5.48303        5.69096
H         -0.19612        5.72924        6.72158
C          0.76370        4.47158        5.20988
H          1.32771        3.72396        5.75588
O          3.71919        3.98358        3.19686
Si         5.09185        4.75161        3.56231
C          5.72449        3.86507        5.19259
C          6.72707        4.70574        5.98357
H          7.06999        4.15680        6.86087
H          6.28643        5.63761        6.32578
H          7.59474        4.94477        5.37343
C          6.38801        2.52313        4.86872
H          6.62422        1.99221        5.79195
H          7.31674        2.65915        4.32208
H          5.71598        1.89934        4.28299
C          4.51681        3.53766        6.07995
H          4.82807        2.93435        6.93349
H          3.77782        2.95983        5.51027
H          4.03737        4.43349        6.46173
C          6.22425        4.45691        1.99174
C          7.68730        4.82820        2.23319
H          8.27284        4.65746        1.32984
H          8.12118        4.23146        3.03080
H          7.78312        5.87598        2.50567
C          5.70893        5.27670        0.80467
H          6.28118        5.03485       -0.09166
H          5.81097        6.34381        0.98082
H          4.66356        5.04162        0.60689
C          6.13834        2.98691        1.55895
H          6.57743        2.86410        0.56880
H          5.09342        2.66866        1.50571
H          6.66931        2.33193        2.24101
C          4.50465        6.60269        3.82950
C          5.66802        7.59453        3.79388
H          5.30708        8.60643        3.97845
H          6.16108        7.58788        2.82544
H          6.40751        7.35495        4.55370
C          3.48444        6.98481        2.74981
H          3.06787        7.96961        2.96327
H          2.65709        6.26683        2.73643
H          3.92896        7.01825        1.76068
C          3.77310        6.76273        5.16668
H          3.38445        7.77785        5.25660
H          4.43183        6.58916        6.01271
H          2.92510        6.07929        5.22751
