91
CSD_code = PODTAF | q = 0 | S = 0 | Stoichiometry = C31H45F3HfN3O3PSSi3 | MND = 5
Hf         3.11775        8.43966        5.72161
P          3.78509        6.17734        4.52784
S          2.96421       11.06883        5.78846
Si         3.17281        9.88461        2.45451
Si         0.30750        7.66431        6.91511
Si         5.88998        7.89487        7.82720
O          1.81297       10.20976        5.56424
F          1.12423       12.33683        7.27911
N          3.76587        8.97712        3.81153
O          3.99563       10.22294        6.37473
O          3.35327       12.00894        4.80588
F          2.76666       11.50874        8.40311
N          4.37522        7.44914        7.10623
F          3.04454       13.31864        7.26931
N          1.33591        7.37419        5.56567
C          2.74473        4.99873        9.37045
H          2.28328        4.99734       10.34681
C          0.85575        7.18501        4.27045
C          1.38702        8.72120        8.10854
H          2.44211        8.72929        7.79285
H          1.33267        8.35779        9.12995
H          1.01726        9.74263        8.12115
C         -0.15344        7.99481        3.73665
H         -0.53981        8.79155        4.34982
C          2.34379        5.16263        4.00173
H          2.61769        4.40817        3.25957
H          1.96078        4.67286        4.90357
C          6.03030        7.30359        9.65296
H          5.39375        7.86754       10.32762
H          7.05137        7.42239       10.00075
H          5.77128        6.25483        9.75482
C          5.15820        8.78214        3.82824
C          1.50080       10.76672        2.67548
H          0.83789       10.22601        3.33590
H          1.00484       10.87081        1.71610
H          1.64987       11.75659        3.08931
C          7.39861        9.67224        4.12175
H          8.04094       10.49801        4.38993
C          2.85231        3.82106        8.65171
H          2.46799        2.89484        9.05015
C         -0.18126        6.76518        1.67953
H         -0.57051        6.60236        0.68654
C          3.48317        3.84418        7.42040
H          3.60280        2.92280        6.86680
C          4.72482        4.99475        5.57562
H          4.75261        3.98938        5.14786
H          5.73969        5.37854        5.69303
C          3.84717        6.23562        7.58815
C          6.30898        9.75114        7.88605
H          6.42917       10.15886        6.89077
H          7.24398        9.88914        8.41927
H          5.54719       10.33263        8.39271
C          2.94237        8.69206        0.95638
H          3.89334        8.31166        0.59608
H          2.48226        9.22532        0.13170
H          2.30127        7.84903        1.19325
C          6.02536        9.82529        4.17648
H          5.59195       10.77417        4.45709
C          1.31832        6.11925        3.46410
C          5.73392        7.55793        3.41005
C          3.99880        5.01755        6.89010
C         -0.65989        7.79638        2.46746
H         -1.43498        8.44889        2.09369
C          3.23638        6.17819        8.84602
H          3.18900        7.08180        9.43160
C          4.83451        6.41176        3.03035
H          5.40606        5.51738        2.77050
H          4.17997        6.69482        2.20332
C         -0.17616        5.97652        7.68729
H         -0.90310        5.47113        7.06027
H         -0.62580        6.10562        8.66529
H          0.67864        5.31847        7.79721
C          7.37901        7.03057        6.96259
H          7.41058        5.96751        7.18473
H          8.31244        7.45633        7.31692
H          7.35807        7.15526        5.88459
C          7.95090        8.47367        3.70424
H          9.02175        8.35336        3.64739
C          0.80276        5.93628        2.19031
H          1.17019        5.11420        1.59077
C         -1.34206        8.64303        6.78386
H         -1.18559        9.65756        6.42646
H         -1.81678        8.71125        7.75889
H         -2.04656        8.15515        6.11767
C          7.11291        7.42647        3.35645
H          7.53950        6.49018        3.02234
C          4.41445       11.20441        1.82630
H          4.49575       12.02088        2.53626
H          4.08291       11.62073        0.88005
H          5.40691       10.79052        1.67361
C          2.44424       12.13263        7.26443
