76
CSD_code = POJROX | q = 0 | S = 0 | Stoichiometry = C33H33Cl4NOP2SiTi | MND = 6
Ti        13.74699        5.87387       14.80014
Cl        11.74813        5.93950       15.81965
Cl        15.93319        5.78369       14.49812
Cl        13.30857        4.17173       13.53245
Cl        13.40647        7.59475       13.52602
P         14.27661        4.56510       16.91571
P         14.27298        7.37162       16.84483
Si        18.84953        5.61159       17.46386
O         17.22211        5.70285       17.82121
N         14.47718        5.98655       17.86645
C         16.64423        5.91549       19.01326
C         15.24960        6.07803       19.05719
C         14.62763        6.37884       20.26271
H         13.56364        6.56072       20.27021
C         15.35606        6.47245       21.43445
H         14.85704        6.70460       22.36238
C         16.72378        6.26809       21.40105
H         17.30428        6.32958       22.30898
C         17.35905        5.99950       20.20370
H         18.42670        5.86422       20.17908
C         12.89313        3.67028       17.70844
C         12.19858        2.80328       16.86812
H         12.49222        2.73238       15.82552
C         11.13630        2.06670       17.35581
H         10.59422        1.40105       16.70098
C         10.75855        2.19461       18.68372
H          9.92159        1.62789       19.06390
C         11.44847        3.05392       19.52160
H         11.15196        3.15490       20.55577
C         12.51750        3.78994       19.03951
H         13.05309        4.45835       19.69680
C         15.58937        3.36594       17.33023
C         15.83025        2.93089       18.62923
H         15.29442        3.36971       19.45853
C         16.75525        1.92855       18.85439
H         16.94832        1.59415       19.86331
C         17.42128        1.34071       17.79009
H         18.13279        0.54874       17.97286
C         17.17025        1.76220       16.49452
H         17.68451        1.29889       15.66543
C         16.25594        2.77456       16.26257
H         16.04610        3.11187       15.25419
C         12.99891        8.31977       17.73981
C         11.99654        7.68314       18.46482
H         11.98830        6.60373       18.53225
C         10.99880        8.42882       19.06536
H         10.22483        7.93150       19.63140
C         10.98039        9.80745       18.92782
H         10.19683       10.38651       19.39362
C         11.95661       10.44215       18.17661
H         11.93144       11.51462       18.05160
C         12.95997        9.70239       17.57870
H         13.71812       10.19080       16.98029
C         15.73247        8.42595       17.16512
C         16.57258        8.72024       16.09647
H         16.35761        8.30190       15.12117
C         17.66392        9.55140       16.28020
H         18.31191        9.78177       15.44789
C         17.91946       10.09340       17.52859
H         18.76989       10.74333       17.67296
C         17.07903        9.80860       18.59420
H         17.27309       10.23713       19.56684
C         15.98341        8.98444       18.41597
H         15.31569        8.78628       19.24211
C         18.97055        5.55425       15.58319
H         18.42007        4.71666       15.17092
H         20.00969        5.45129       15.28765
H         18.57761        6.45392       15.12402
C         19.60776        4.02741       18.22143
H         19.24120        3.82109       19.22360
H         20.68993        4.10050       18.27393
H         19.37118        3.16032       17.61206
C         19.75064        7.14952       18.16500
H         19.04606        7.86804       18.57548
H         20.31250        7.65715       17.38672
H         20.45678        6.89263       18.95031
