136
CSD_code = POMBAX | q = 1 | S = 0 | Stoichiometry = C65H64P5RuSi(1+) | MND = 6
Ru         4.14789        9.21229       18.05741
P          4.84917       10.98803       16.74896
P          1.97019        9.84414       17.45917
P          3.55229        7.53945       19.60211
P          4.38998        7.68911       16.33681
P          6.28334        8.71592       18.85378
Si         3.91317        6.26686       13.29754
C          2.10193       11.17424       16.17405
H          2.08690       10.64604       15.21339
H          1.20820       11.80514       16.21954
C          3.87025       10.82688       19.22910
C          0.72375        8.79946       16.62188
C          5.62265       10.66708       15.12861
C          8.73380        9.86008       18.07033
H          8.66229       10.47674       18.95423
C          0.87047       11.93484       19.02453
H          1.47165       12.62964       18.45818
C          7.74323        8.92195       17.78766
C          5.94898       12.28380       17.39212
C          5.44739        9.97076       12.83251
H          4.84150        9.64155       12.00169
C          4.85615       10.21535       14.05752
H          3.79384       10.05664       14.17741
C          2.83414        7.83379       21.24706
C          6.99511       10.82937       14.96331
H          7.60041       11.16977       15.79170
C          3.36659       12.00893       16.30688
H          3.26769       12.72842       17.12692
H          3.56856       12.55541       15.37985
C          2.49270        6.17244       19.01572
C          0.07516       12.40699       20.05324
H          0.06697       13.46302       20.27815
C          6.15904       13.43100       16.62854
H          5.70332       13.52341       15.65238
C          6.56508       12.16451       18.62861
H          6.39091       11.27629       19.22309
C          0.89686       10.57529       18.73515
C          7.58294       10.57338       13.73852
H          8.64684       10.71140       13.61856
C          6.86397        9.13960       20.52849
C          0.97072        7.48016       16.27496
H          1.92050        7.02461       16.51689
C          9.82019        9.99835       17.22542
H         10.58617       10.72322       17.45727
C         -0.51101        9.36796       16.30696
H         -0.72328       10.38903       16.59210
C          7.84607        8.15379       16.63015
H          7.06935        7.44252       16.37371
C          6.81111       10.14995       12.66964
H          7.27129        9.96100       11.71152
C          3.57586       13.08806       20.53739
C          1.16111        6.08110       19.40860
H          0.76371        6.78819       20.12278
C          2.73322        6.77082       22.14436
H          3.07625        5.78632       21.85777
C          6.24095        6.88128       19.11519
H          6.08000        6.37920       18.15419
H          7.19802        6.54382       19.52637
C          5.09675        6.60222       20.08054
H          5.37095        6.95864       21.08062
H          4.87653        5.53233       20.14103
C          8.53436        8.99426       22.24834
H          9.52613        8.70888       22.56569
C          6.95980       14.44683       17.11518
H          7.11517       15.33628       16.52313
C          1.71522        8.22945       23.75403
H          1.27774        8.38104       24.72913
C          0.00767        6.73704       15.61383
H          0.21412        5.71043       15.35107
C          8.93506        8.29372       15.79101
H          9.00635        7.68623       14.90157
C          0.35474        5.07358       18.91173
H         -0.67696        5.01125       19.22356
C          8.14074        8.76483       20.94367
H          8.82422        8.29846       20.24699
C          3.21397       15.47093       21.96083
C          2.19551        4.22202       17.63363
H          2.60495        3.49331       16.95022
C         -0.69044       10.17819       20.50113
H         -1.30094        9.49378       21.07113
C         -0.70048       11.53203       20.79551
H         -1.31637       11.90613       21.59911
C          0.86849        4.14358       18.02342
H          0.23813        3.35514       17.64154
C          3.92723       14.31282       19.96826
H          4.34941       14.33797       18.97229
C          3.74232       11.88676       19.80595
C         -1.46872        8.62496       15.64624
H         -2.42136        9.07171       15.40447
C          0.10673        9.70252       19.47778
H          0.11979        8.64865       19.23382
C          3.00168        5.23420       18.12032
H          4.03608        5.28727       17.80201
C         -1.21140        7.30751       15.29598
H         -1.96307        6.73024       14.77954
C          7.36508       13.18324       19.11387
H          7.82908       13.08580       20.08427
C          7.55891       14.32809       18.36001
H          8.17587       15.12817       18.73953
C          4.17302        7.26263       14.84562
C          2.17994        6.97309       23.39313
H          2.10387        6.14904       24.08657
C          7.65918        9.58211       23.14957
H          7.97321        9.75697       24.16727
C          2.37119        9.09060       21.61243
H          2.45462        9.91224       20.91445
C          3.74706       15.48329       20.67567
H          4.02477       16.42604       20.22569
C          1.80925        9.28388       22.86324
H          1.43741       10.25968       23.13895
C          3.00309       16.75059       22.70827
H          3.82565       17.44081       22.53319
H          2.91608       16.56875       23.77660
H          2.08566       17.23434       22.37076
C          9.92841        9.21155       16.09037
H         10.78263        9.31677       15.43913
C          3.04565       13.06899       21.82658
H          2.77734       12.12319       22.27502
C          5.98528        9.71654       21.43819
H          4.99265       10.00050       21.11351
C          6.38412        9.93814       22.74470
H          5.69560       10.38789       23.44396
C          2.86843       14.24743       22.52298
H          2.45635       14.21883       23.52187
C          5.54299        6.22836       12.31858
H          5.94830        7.22610       12.18195
H          5.39715        5.79115       11.33558
H          6.29498        5.63677       12.83191
C          2.50097        7.11496       12.34339
H          1.61692        7.22085       12.96661
H          2.21946        6.53921       11.46705
H          2.78479        8.10668       12.00519
C          3.39365        4.51803       13.84693
H          4.16858        4.04406       14.44150
H          3.20272        3.88122       12.98889
H          2.48826        4.54794       14.44516
