59
CSD_code = POSCEI | q = 0 | S = 0 | Stoichiometry = C22H34Si2Ti | MND = 12
Ti         2.04229        1.59963        3.01333
Si         4.99092        3.51895        2.57056
Si         1.43545       -1.86070        3.49532
C          4.08263        1.88332        2.83945
C          4.72970        0.70347        2.96009
C          3.92626       -0.51290        3.13985
C          2.58447       -0.38355        3.23006
C          6.23047        0.54145        2.92886
C          4.66751       -1.82664        3.20407
C          3.85918        4.97671        2.03740
H          4.38009        5.91750        2.19224
H          3.60889        4.92093        0.98237
H          2.93062        5.02581        2.59647
C          5.89686        4.10441        4.16314
H          6.60388        3.36226        4.51997
H          6.45013        5.01991        3.97591
H          5.20183        4.30103        4.97354
C          6.29592        3.43685        1.15485
H          7.30068        3.28910        1.53712
H          6.08774        2.62188        0.46802
H          6.30263        4.35717        0.57888
C         -0.36291       -1.38997        3.97960
H         -0.76118       -0.56390        3.39979
H         -1.01770       -2.24221        3.82047
H         -0.43568       -1.12389        5.02972
C          1.99331       -3.00391        4.94301
H          2.54079       -3.87092        4.58806
H          2.63779       -2.47738        5.64067
H          1.13668       -3.37012        5.50059
C          1.29328       -2.94832        1.91527
H          0.84329       -2.40431        1.09063
H          2.26418       -3.29687        1.57784
H          0.67910       -3.82355        2.10507
C          2.19031        3.32793        4.71304
H          2.74158        4.25559        4.68447
C          2.66914        2.11177        5.24132
H          3.64293        1.95145        5.68692
C          1.59369        1.19344        5.25768
H          1.60198        0.22998        5.74865
C          0.46545        1.84131        4.71196
H         -0.54469        1.45380        4.69927
C          0.83867        3.16027        4.38201
H          0.16799        3.94292        4.04841
C          2.29151        2.13638        0.76467
H          3.19119        2.50169        0.28871
C          1.87191        0.78614        0.79234
H          2.41362       -0.05207        0.37230
C          0.55382        0.75380        1.29123
H         -0.08151       -0.11846        1.31890
C          0.16682        2.06681        1.59302
H         -0.82450        2.37881        1.89891
C          1.23869        2.92543        1.27411
H          1.19587        4.00654        1.26889
H          6.53928        0.02873        2.01784
H          6.56815       -0.04977        3.77837
H          6.72802        1.50305        2.96163
H          5.35681       -1.91648        2.36608
H          3.98140       -2.66432        3.17443
H          5.24674       -1.89298        4.12509
