129
CSD_code = POSWUQ | q = 0 | S = 0 | Stoichiometry = C47H72N3O3ScSi3 | MND = 6
C          2.12337        9.80677        5.63549
C          1.37073        9.34292        3.60660
H          1.37707        8.29841        3.28200
H          1.39866        9.99496        2.73363
C          0.20329        9.64122        4.57500
H         -0.48703        8.79604        4.63969
C         -0.60612       10.90762        4.23433
H         -1.30818       11.05009        5.06051
C          0.26726       12.15748        4.14336
H          0.95343       12.11032        3.29981
H          0.84718       12.28451        5.05564
H         -0.36208       13.03484        4.01554
C         -1.40328       10.69128        2.95114
H         -0.74668       10.56664        2.09271
H         -2.04708       11.54753        2.76634
H         -2.02264        9.80218        3.03462
C          2.63279       11.14007        7.57762
C          2.21410       13.23838        8.15228
H          1.40537       13.74224        7.61420
H          2.90880       13.98304        8.54022
C          1.68294       12.25519        9.21970
H          0.61117       12.37882        9.38893
C          2.40309       12.31897       10.58151
H          2.06245       11.43996       11.13650
C          3.92256       12.23615       10.45012
H          4.33712       13.12766        9.98374
H          4.21052       11.36804        9.86099
H          4.37010       12.13743       11.43588
C          1.98755       13.57579       11.34118
H          2.27794       14.47518       10.80178
H          2.46635       13.59537       12.31682
H          0.91123       13.59537       11.48759
C          3.31119        8.78109        7.47694
C          4.43947        7.17494        8.50478
H          4.78530        7.35850        9.52460
H          5.07871        6.42611        8.03607
C          2.93299        6.83826        8.44259
H          2.50887        6.68419        9.43850
C          2.59751        5.60872        7.57574
H          1.50491        5.54773        7.55350
C          3.10333        5.75092        6.14102
H          2.71366        6.65885        5.68402
H          2.77089        4.90086        5.55016
H          4.19071        5.78002        6.10068
C          3.13627        4.33661        8.22405
H          2.81275        3.46798        7.65612
H          2.76456        4.23974        9.24024
H          4.22370        4.33570        8.25227
C          3.17124       10.05406        6.68787
C          4.50208       10.47132        6.06150
H          4.85670        9.69339        5.39112
H          5.24326       10.63254        6.83989
H          4.36968       11.39177        5.49946
C         -1.34308       10.97523        7.87221
H         -0.75846       11.80960        7.44818
H         -1.92214       10.56674        7.02741
C         -3.71369       10.27691        9.76065
H         -4.53287       10.03213        9.09280
H         -4.14631       10.54453       10.71924
H         -3.11889        9.37720        9.89733
C         -1.86857       12.64132       10.51731
H         -1.20448       11.99952       11.08746
H         -2.63989       12.99338       11.19504
H         -1.30200       13.50828       10.18862
C         -3.82906       12.88882        8.16798
C         -3.95153       14.23339        8.50408
H         -3.37181       14.62826        9.32562
C         -4.80488       15.07788        7.81558
H         -4.88485       16.11802        8.10239
C         -5.55846       14.59366        6.76065
H         -6.22753       15.25008        6.22175
C         -5.44722       13.26060        6.40184
H         -6.03085       12.87332        5.57753
C         -4.59160       12.42715        7.09769
H         -4.51221       11.38894        6.80796
C          0.13939        9.01479       10.62665
H          0.13873       10.07979       10.91648
H         -0.86700        8.65714       10.90307
C          1.04304        8.35062       13.66364
H          1.03536        9.39826       13.95186
H          1.80551        7.85389       14.25707
H          0.08369        7.92895       13.94883
C          3.14171        8.76411       11.48767
H          3.26300        9.14200       10.47638
H          3.86940        7.97339       11.64674
H          3.39139        9.56899       12.17104
C          1.33501        6.25715       11.51673
C          0.36800        5.64513       10.72573
H         -0.34841        6.26756       10.20793
C          0.30827        4.26922       10.59166
H         -0.45547        3.81834        9.97356
C          1.22457        3.46812       11.25352
H          1.18014        2.39244       11.15673
C          2.19930        4.05643       12.04262
H          2.91779        3.43785       12.56316
C          2.24771        5.43354       12.16927
H          3.00879        5.87794       12.79596
C         -1.15964        7.28773        7.60060
H         -0.46323        6.43244        7.61658
H         -1.78460        7.15103        8.50290
C         -3.42836        5.39210        6.34558
H         -2.80755        4.50707        6.45491
H         -4.06433        5.23665        5.47825
H         -4.07138        5.44903        7.21905
C         -3.58945        8.42472        5.95919
H         -3.87940        8.81384        6.92970
H         -4.49401        8.10215        5.45225
H         -3.16599        9.24598        5.38871
C         -1.47195        6.70575        4.50761
C         -2.10992        6.97800        3.30095
H         -3.10909        7.38927        3.31599
C         -1.49814        6.73017        2.08492
H         -2.01615        6.95072        1.16175
C         -0.22408        6.18952        2.04841
H          0.25580        5.98793        1.10096
C          0.42745        5.90239        3.23678
H          1.41949        5.46976        3.21561
C         -0.19460        6.15920        4.44660
H          0.31809        5.93332        5.36928
N          0.87586        9.79264        5.86190
N          1.90859       10.95140        8.60002
N          2.34846        8.04446        7.85663
O          2.54427        9.58603        4.38647
O          2.91612       12.40327        7.22831
O          4.55542        8.38968        7.76315
Sc         0.05424        9.16354        8.29291
Si        -2.62740       11.67911        9.04163
Si         1.33846        8.15441       11.77085
Si        -2.35089        6.98198        6.18829
