26
CSD_code = PUBSOU | q = 0 | S = 0 | Stoichiometry = C10H10Cl4MoSi | MND = 12
Mo         3.96062        9.42215        2.05493
Cl         3.50896        9.69743       -0.38280
Cl         0.55601       11.15471        1.33409
Cl         0.82053        9.27173        3.97415
Cl         0.52310        7.95118        1.01800
Si         1.46900        9.45943        2.02969
C          3.41259       11.57081        3.05697
H          2.47277       11.99150        3.38287
C          4.32816       10.88203        3.86532
H          4.21374       10.69333        4.92241
C          5.51765       10.68516        3.10746
H          6.47687       10.41564        3.52832
C          5.31534       11.21765        1.80771
H          6.07294       11.38673        1.05843
C          3.99474       11.74363        1.77816
H          3.57906       12.35312        0.98330
C          3.36999        7.13481        2.61987
H          2.42360        6.69077        2.89102
C          4.34337        7.60105        3.51276
H          4.27446        7.57071        4.59016
C          5.51195        7.91428        2.76222
H          6.49495        8.06566        3.18684
C          5.24289        7.67863        1.39169
H          5.96577        7.64716        0.59149
C          3.89738        7.22070        1.30739
H          3.43264        6.80010        0.42213
