72
CSD_code = PUJZAX | q = 0 | S = 0 | Stoichiometry = C17H47N2OScSi4 | MND = 4
Sc         2.35607        2.74189        2.99911
Si         3.06829       -0.49248        3.21615
Si         1.10227        2.88672        5.97037
Si         5.30467        1.38574        2.38259
Si        -0.86741        3.36987        3.72027
N          0.69418        2.94765        4.30122
N          3.65863        1.05379        2.75772
C          3.01900        2.73347        6.01392
H          3.37187        2.00608        5.27133
H          3.36914        2.40127        6.98628
H          3.49171        3.69479        5.81352
C         -2.30736        3.26387        4.96618
H         -2.38869        2.26894        5.38970
H         -3.25529        3.49991        4.49328
H         -2.16483        3.95909        5.78488
C          0.65143        4.44785        6.97891
H          0.89008        5.34951        6.42400
H          1.18702        4.48467        7.92226
H         -0.40888        4.47260        7.20344
C         -1.34964        2.19137        2.27722
H         -0.48301        1.92416        1.67698
H         -2.08375        2.65076        1.62261
H         -1.78342        1.27116        2.65461
C          0.39056        1.36794        6.89911
H         -0.69188        1.41721        6.94400
H          0.75799        1.32033        7.91975
H          0.65761        0.43784        6.40613
C         -0.86473        5.15495        3.01717
H         -0.78829        5.87875        3.82119
H         -1.77185        5.37534        2.46311
H         -0.01722        5.31420        2.35476
C          6.03907        2.60931        3.66472
H          5.36947        3.45557        3.82156
H          6.99943        2.99793        3.34118
H          6.19095        2.12436        4.62406
C          3.46924       -1.91808        1.99707
H          3.42782       -1.59301        0.96157
H          2.77176       -2.74222        2.11250
H          4.46491       -2.30644        2.17683
C          1.15346       -0.30752        3.24516
H          0.86503        0.70042        3.58045
H          0.70319       -1.02000        3.92916
H          0.71567       -0.48787        2.26611
C          6.48955       -0.10595        2.30265
H          6.43360       -0.69462        3.21094
H          7.51872        0.21487        2.17895
H          6.24583       -0.75895        1.47264
C          3.63264       -1.08634        4.95183
H          4.70982       -1.00035        5.05307
H          3.36967       -2.12596        5.12127
H          3.18182       -0.49758        5.74561
C          5.38167        2.22818        0.65750
H          5.25926        1.50378       -0.14185
H          6.33449        2.72311        0.50285
H          4.59759        2.97606        0.56051
C          1.88219        1.30502       -0.03601
H          0.97812        0.68137        0.01213
H          2.72412        0.77161        0.40933
C          2.11999        1.78196       -1.46193
H          1.92880        1.00508       -2.19766
H          3.14304        2.14005       -1.57414
C          1.23699        3.55090       -0.14655
H          0.28041        3.94103        0.21521
H          1.98858        4.34923       -0.11481
C          1.13423        2.94431       -1.54694
H          1.38707        3.66317       -2.32217
H          0.12639        2.57043       -1.72983
C          3.17983        4.84287        2.65934
H          2.43733        5.53018        2.22066
H          4.06339        4.92341        2.00509
H          3.47952        5.33450        3.60171
O          1.67269        2.49804        0.73967
