76
CSD_code = PUNKOY | q = 0 | S = 0 | Stoichiometry = C27H43ClP3RhSi | MND = 6
Rh         3.52689        3.66027        1.72243
Cl         5.51894        3.66022        3.16557
P          2.09541        3.66027        3.58486
P          3.89736        1.39176        1.78772
Si         1.88289        3.66025       -0.00936
C          0.06077        3.66025        0.59741
C         -0.62171        4.84940        0.83032
C         -1.94113        4.85577        1.25078
C         -2.60793        3.66026        1.45892
C          1.95636        5.03874       -1.36237
C          0.81557        5.55000       -1.97052
C          0.90177        6.45770       -3.01211
C          2.13830        6.86353       -3.48282
C          3.28663        6.33822       -2.91453
C          3.18796        5.43452       -1.87293
C          2.94086        3.66026        5.21383
C          0.90261        2.28734        3.86281
C          4.26422        0.64691        3.42759
C          5.42811        0.87505        0.92922
C          2.70407        0.15049        1.14665
H          4.48942        3.66015        0.55990
H         -0.11129        5.78865        0.67036
H         -2.45166        5.79485        1.41583
H         -3.63905        3.66027        1.78189
H         -0.15858        5.22943       -1.63268
H         -0.00110        6.84566       -3.46328
H          2.20706        7.57369       -4.29455
H          4.25806        6.63141       -3.28878
H          4.08597        5.01438       -1.44378
H          3.58034        4.53673        5.29106
H          2.20664        3.66027        6.01995
H          0.41243        2.41600        4.82776
H          0.15432        2.30977        3.07284
H          1.40335        1.32266        3.84181
H          3.40445        0.70145        4.09103
H          4.54290       -0.39751        3.28562
H          5.09547        1.19106        3.87298
H          5.62376       -0.18074        1.11841
H          5.33209        1.04155       -0.14072
H          6.24997        1.47796        1.31427
H          1.75820        0.23837        1.67670
H          2.52905        0.32909        0.08878
H          3.10576       -0.85248        1.28601
H          3.58035        2.78380        5.29106
C          0.90259        5.03317        3.86281
H          0.41242        4.90452        4.82777
H          0.15431        5.01074        3.07285
H          1.40333        5.99786        3.84179
P          3.89734        5.92878        1.78775
C          4.26422        6.67364        3.42760
H          3.40445        6.61909        4.09103
H          4.54291        7.71806        3.28565
H          5.09547        6.12947        3.87299
C          5.42809        6.44548        0.92923
H          5.62377        7.50127        1.11841
H          5.33206        6.27899       -0.14071
H          6.24996        5.84258        1.31426
C          2.70408        7.17006        1.14666
H          1.75821        7.08217        1.67671
H          2.52906        6.99145        0.08879
H          3.10578        8.17304        1.28602
C         -1.94114        2.46474        1.25078
C         -0.62172        2.47110        0.83032
H         -0.11131        1.53185        0.67036
H         -2.45168        1.52568        1.41583
C          1.95635        2.28176       -1.36237
C          0.81556        1.77050       -1.97052
C          0.90176        0.86281       -3.01212
C          2.13829        0.45697       -3.48282
C          3.28662        0.98227       -2.91454
C          3.18795        1.88597       -1.87293
H          4.08597        2.30612       -1.44379
H          4.25805        0.68908       -3.28879
H          2.20705       -0.25319       -4.29455
H         -0.00111        0.47484       -3.46328
H         -0.15859        2.09107       -1.63268
