60
CSD_code = QAQBUF | q = 0 | S = 0 | Stoichiometry = C22H32Br2OSi2Zr | MND = 12
Zr         1.81937        2.99181       10.37652
Br         1.05557        4.95729        8.89289
Br         3.08151        4.73753       11.76727
Si         1.30598        1.92890       13.42303
Si         3.96009        0.90062       11.82824
O          2.50811        1.59324       12.28925
C          0.16979        2.66330       12.12300
C         -0.17113        1.88489       10.94045
C         -1.08568        2.65212       10.18149
C         -1.27843        3.87990       10.82804
C         -2.14793        5.02161       10.40060
C         -1.75007        6.28831       11.15859
C         -1.63575        6.00320       12.65477
C         -0.44893        5.07628       12.92600
C         -0.50803        3.89907       12.00027
C          1.98238        2.99563       14.84288
C          0.70107        0.25404       14.10555
C          3.70053        1.39283       10.03292
C          4.19594        2.60084        9.47276
C          3.45441        2.91292        8.32369
C          2.45430        1.92406        8.16633
C          1.45979        1.76688        7.04822
C          1.12799        0.28159        6.88099
C          0.71293       -0.32635        8.22100
C          1.89069       -0.34491        9.20373
C          2.59094        0.98943        9.21922
C          5.39865        1.79082       12.69541
C          3.94829       -0.95397       12.24325
H         -0.08010        0.80226       10.89655
H         -1.59707        2.33387        9.28259
H         -2.05817        5.18634        9.32462
H         -3.19506        4.77800       10.61369
H         -0.78709        6.64160       10.78465
H         -2.48950        7.07055       10.97978
H         -2.55647        5.52872       13.00273
H         -1.50529        6.93567       13.20641
H          0.47968        5.63651       12.76164
H         -0.45100        4.74223       13.96725
H          1.20300        3.19107       15.57095
H          2.37010        3.95002       14.50237
H          2.78639        2.47556       15.35520
H         -0.12737        0.40358       14.78761
H          1.49106       -0.25088       14.65115
H          0.36151       -0.41562       13.32181
H          5.06659        3.14169        9.82500
H          3.65148        3.72873        7.63924
H          1.87143        2.17183        6.12032
H          0.53731        2.32842        7.26283
H          0.32349        0.16054        6.15359
H          2.00771       -0.24467        6.50348
H          0.35326       -1.34668        8.07061
H         -0.11575        0.26045        8.62928
H          1.55151       -0.64554       10.20238
H          2.60940       -1.10677        8.87630
H          5.29230        2.87133       12.65662
H          6.34625        1.53051       12.23669
H          5.45335        1.50515       13.74141
H          4.75917       -1.45953       11.73279
H          3.02266       -1.44492       11.96457
H          4.08973       -1.10015       13.30855
