112
CSD_code = QAQWIO | q = 0 | S = 0 | Stoichiometry = C45H59O3P3SiW | MND = 6
W         12.98649        4.78720        8.76556
P         14.55490        3.07442        9.46651
P         13.10334        5.55246       11.10597
P         11.25995        3.28439        9.56670
Si        12.95364        2.71978       12.08422
O         15.15834        6.67701        7.57503
O         11.00532        7.01937        7.85803
O         12.84983        4.05255        5.74389
C         11.72285        6.20367        8.24390
C          8.93092        1.92749       10.96032
H          8.08632        1.48673       11.47459
C         14.59008        2.49817       11.09497
C         15.75705        1.93235       11.61332
C         16.86838        1.65180       10.83040
H         17.70581        1.17939       11.32836
C         17.02217        1.91268        9.47102
C         16.06732        2.61453        8.75104
C         13.01301        4.57822       12.54758
C         12.97786        5.16127       13.80996
C         12.98756        6.53347       14.00999
H         12.94405        6.87894       15.03440
C         13.05869        7.51212       13.02266
C         13.13719        7.19404       11.67294
C         11.26823        2.61351       11.15923
C         10.09107        2.09136       11.70256
C          8.72905        2.27137        9.62468
C          9.69197        2.95388        8.89616
C         12.93123        1.05551       13.01896
C         12.97441        0.82608       14.38551
H         13.02849        1.65269       15.07379
C         12.95280       -0.45822       14.90237
H         12.98709       -0.60585       15.97238
C         12.88881       -1.54970       14.05470
H         12.87197       -2.55224       14.45644
C         12.84785       -1.34326       12.68602
H         12.79917       -2.18648       12.01198
C         12.86910       -0.05716       12.18132
H         12.83598        0.09018       11.11020
C         15.88002        1.62055       13.07815
H         15.29839        2.31730       13.67471
H         16.92148        1.68474       13.38699
H         15.52675        0.61234       13.28904
C         18.32577        1.49548        8.84109
H         18.68439        0.58449        9.32596
H         18.19399        1.27675        7.78184
C         19.38379        2.59306        9.00749
H         19.52696        2.79107       10.07211
H         19.02302        3.51666        8.54975
C         20.71122        2.19262        8.37723
H         21.09256        1.28157        8.83390
H         21.44995        2.97919        8.51198
H         20.59069        2.01500        7.31057
C         16.19173        2.94624        7.28917
H         17.23184        3.09137        6.99736
H         15.65540        3.88142        7.09039
C         15.55878        1.84062        6.43714
H         16.06942        0.89290        6.62789
H         14.51535        1.72105        6.74816
C         15.61521        2.17082        4.95228
H         15.07091        3.08959        4.74948
H         15.16822        1.37108        4.36631
H         16.64561        2.30150        4.62735
C         12.92293        4.28495       15.02706
H         12.84425        4.87978       15.93384
H         13.82628        3.68052       15.09316
H         12.06246        3.62079       14.97690
C         12.99480        8.94804       13.47693
H         13.34818        9.01771       14.50800
H         13.64115        9.57429       12.86304
C         11.56041        9.49520       13.41172
H         11.58708       10.56477       13.63320
H         11.16904        9.37188       12.40008
C         10.62416        8.80241       14.39304
H         10.55483        7.74010       14.17057
H          9.62693        9.23179       14.32903
H         10.98188        8.92093       15.41401
C         13.34774        8.22940       10.60320
H         12.96929        7.84476        9.65014
H         12.81540        9.15429       10.82527
C         14.84479        8.51908       10.44065
H         15.25621        8.88112       11.38638
H         15.35556        7.58185       10.20034
C         15.10082        9.54131        9.34220
H         14.72828        9.17352        8.38960
H         16.16638        9.73329        9.24179
H         14.60039       10.48092        9.56856
C         10.01163        1.69394       13.14970
H          8.98663        1.77942       13.50477
H         10.64423        2.32685       13.76456
H         10.33090        0.66159       13.28423
C          7.40019        1.87701        9.03377
H          7.21785        2.38946        8.09100
H          6.60199        2.15660        9.72667
C          7.33569        0.36364        8.79434
H          7.47013       -0.16034        9.74287
H          8.15779        0.06678        8.13924
C          6.00925       -0.04544        8.16750
H          5.17913        0.23194        8.81394
H          5.97684       -1.12103        8.00991
H          5.87229        0.44585        7.20641
C          9.51738        3.41133        7.47412
H          8.50062        3.76481        7.29282
H         10.19556        4.25398        7.29266
C          9.86552        2.29606        6.48327
H          9.19437        1.44819        6.63420
H         10.88484        1.95523        6.69066
C          9.76925        2.77539        5.04158
H          8.76247        3.12455        4.82052
H         10.01224        1.96792        4.35472
H         10.46324        3.59353        4.86734
C         14.38705        5.99381        8.09092
C         12.88502        4.23630        6.88057
