70
CSD_code = QAQXUC | q = 0 | S = 0 | Stoichiometry = C21H39N3O3PSi2Tc | MND = 5
Tc         1.35967        4.68948        4.64930
N          2.92756        5.05392        4.11701
P          1.93970        2.77890        5.94259
C          0.82042        2.48395        7.34179
C          0.88090        3.35686        8.42456
H          1.61576        4.15158        8.42196
C          0.00811        3.21712        9.48735
H          0.06500        3.89595       10.32683
C         -0.94040        2.20644        9.47661
H         -1.62652        2.09809       10.30374
C         -1.00968        1.33960        8.39916
H         -1.75275        0.55533        8.38536
C         -0.13503        1.47730        7.33477
H         -0.21118        0.81525        6.48657
C          2.02925        1.19670        5.03521
H          2.86586        1.27237        4.34088
H          1.11548        1.03485        4.47221
H          2.20285        0.37365        5.72894
C          3.57567        2.68245        6.81110
H          4.35203        2.73806        6.05196
H          3.67710        1.75774        7.37620
H          3.69934        3.53080        7.47815
C          1.44561        6.06619        6.18809
N          2.41013        6.87415        6.67771
C          1.94047        7.56665        7.77629
C          0.65548        7.16901        7.97422
N          0.36847        6.24950        6.98436
C          3.70265        7.08833        6.07085
H          4.02005        6.13755        5.63575
H          4.40254        7.40923        6.84335
C          3.59607        8.11908        4.95162
H          4.57156        8.27851        4.50496
H          3.21576        9.06776        5.32218
H          2.92119        7.72458        4.19609
C         -0.93992        5.67207        6.77920
H         -1.38395        5.45994        7.75601
H         -0.83474        4.72654        6.24728
C         -1.82811        6.60759        5.96453
H         -2.81231        6.16393        5.84237
H         -1.38868        6.75242        4.97984
H         -1.93781        7.57594        6.44888
C          2.77599        8.53432        8.53593
H          3.15862        9.31271        7.87901
H          3.62362        8.03337        9.00301
H          2.18442        9.00382        9.31598
C         -0.31631        7.54365        9.03501
H         -0.63097        6.66409        9.59647
H         -1.20444        8.00932        8.61144
H          0.14210        8.24466        9.72605
O          0.08145        5.79028        3.58389
Si        -0.77383        5.22252        2.37338
O         -1.79545        4.03780        2.89414
Si        -1.45335        2.86909        3.98096
O         -0.09116        3.16745        4.73769
C         -1.89180        6.58150        1.67529
H         -2.46546        6.19207        0.84326
H         -1.29199        7.40744        1.31323
H         -2.58918        6.96703        2.41057
C          0.36091        4.45157        1.03877
H         -0.10506        3.60180        0.54838
H          1.29170        4.11403        1.49754
H          0.62252        5.17444        0.27246
C         -2.90358        2.82359        5.22025
H         -3.66783        2.14217        4.86272
H         -3.36569        3.79739        5.34805
H         -2.58086        2.47332        6.19711
C         -1.36903        1.20455        3.05710
H         -2.24887        1.08319        2.43485
H         -1.34806        0.37291        3.75664
H         -0.49743        1.12476        2.41270
