117
CSD_code = QAWSUF | q = 0 | S = 0 | Stoichiometry = C50H61FeNP2Si2 | MND = 8
Fe         2.75252        2.36526        8.93733
P          0.92766        1.68081        9.79141
P          1.72569        2.23127        7.08207
Si         0.80712        6.84460        9.47767
Si         2.13039        8.20718       10.84981
N         -0.76644       13.58446       11.21377
C          4.62797        3.16692        8.61501
C          4.35765        3.22376       10.01301
C          4.14645        1.90023       10.47172
C          4.33345        1.00722        9.36792
C          4.65202        1.79063        8.22838
C          4.98169        4.34963        7.77552
H          4.35567        5.19432        8.05361
H          4.82174        4.14282        6.72042
H          6.02723        4.62730        7.91960
C          4.42492        4.45679       10.85206
H          3.74602        5.21575       10.46646
H          5.43808        4.86095       10.83432
H          4.15873        4.23685       11.88263
C          3.99257        1.49012       11.90202
H          3.85903        0.41468       11.97889
H          3.13939        1.98108       12.36776
H          4.88756        1.76289       12.46400
C          4.45171       -0.48021        9.49559
H          3.54447       -0.92048        9.91055
H          5.27973       -0.72927       10.16217
H          4.65090       -0.93905        8.53060
C          5.09583        1.27348        6.89905
H          4.53429        0.38928        6.60471
H          6.15417        1.00791        6.94078
H          4.96728        2.03241        6.13144
C         -0.48792        2.36184        8.79061
H         -1.35965        1.70663        8.87718
H         -0.72965        3.31177        9.27518
C         -0.08647        2.60765        7.33338
H         -0.24571        3.65468        7.06876
H         -0.67363        1.98960        6.64726
C          0.55987       -0.10611        9.88323
C         -0.11809       -0.79866        8.88595
H         -0.54867       -0.26458        8.05139
C         -0.24476       -2.17461        8.95303
H         -0.77845       -2.70170        8.17511
C          0.31484       -2.87708       10.00689
H          0.21591       -3.95161       10.05554
C          1.00357       -2.19765       10.99982
H          1.44293       -2.74307       11.82310
C          1.13082       -0.82366       10.93276
H          1.65826       -0.28157       11.70593
C          0.38010        2.21702       11.44769
C          0.99948        3.33612       11.99116
H          1.77165        3.82358       11.41510
C          0.60453        3.82046       13.22496
H          1.08883        4.69078       13.64296
C         -0.41130        3.18808       13.92325
H         -0.72047        3.56231       14.88853
C         -1.03551        2.07530       13.38229
H         -1.83176        1.58634       13.92528
C         -0.64401        1.58861       12.14805
H         -1.13083        0.71895       11.72805
C          2.19000        3.31767        5.69671
C          1.98934        4.69016        5.82267
H          1.51244        5.07356        6.71169
C          2.43260        5.55394        4.83900
H          2.26426        6.61586        4.94256
C          3.09741        5.06425        3.72628
H          3.44328        5.73963        2.95739
C          3.32926        3.70387        3.60932
H          3.86129        3.31730        2.75153
C          2.88570        2.83543        4.59044
H          3.07579        1.77569        4.49200
C          1.56020        0.61708        6.22865
C          0.88069        0.46578        5.02304
H          0.47016        1.33449        4.52480
C          0.74045       -0.78974        4.46189
H          0.21493       -0.90469        3.52448
C          1.27131       -1.90232        5.09776
H          1.15951       -2.88035        4.65269
C          1.93755       -1.75897        6.30266
H          2.34155       -2.62498        6.80711
C          2.07475       -0.50249        6.86518
H          2.56691       -0.36379        7.81524
C          1.88622        4.02243        9.00916
C          1.48756        5.16574        9.14605
C          0.52028        7.73780        7.80527
H          0.10364        8.72868        7.96566
H         -0.16261        7.19384        7.15825
H          1.45572        7.85974        7.26684
C         -0.91190        6.58473       10.28430
H         -1.35067        7.53195       10.58541
H         -0.82960        5.95978       11.16921
H         -1.60927        6.09925        9.60713
C          3.88603        8.47942       10.13856
H          4.47657        7.57040       10.19128
H          4.42410        9.25444       10.67741
H          3.84272        8.77425        9.09447
C          2.34356        7.48108       12.60722
H          2.92608        6.56571       12.58252
H          1.37950        7.24195       13.04567
H          2.84543        8.17599       13.27483
C          1.29987        9.90265       11.01789
C          1.57166       10.94496       10.13697
H          2.32589       10.80821        9.37475
C          0.91809       12.15713       10.20587
H          1.18469       12.92401        9.49612
C         -0.07092       12.39171       11.16985
C         -0.35019       11.34589       12.05892
H         -1.09424       11.46517       12.83039
C          0.31551       10.14148       11.97211
H          0.06508        9.36227       12.67860
C         -0.27132       14.71503       10.46601
H         -0.91858       15.57225       10.63823
H         -0.28672       14.49678        9.39638
H          0.75160       14.99109       10.75206
C         -1.61200       13.86724       12.34803
H         -2.08583       14.83713       12.21064
H         -1.05515       13.88473       13.29400
H         -2.40337       13.11912       12.42297
