175
CSD_code = QEGMUM | q = 0 | S = 0 | Stoichiometry = C66H99N6O2SiY | MND = 5
Y         15.83011       11.42364       12.21877
Si        17.94389       10.52151        9.35774
N         17.14012       12.79202       13.17654
N         17.73132       15.08554       13.59052
N         18.16973       13.59205       15.18956
N         13.97252       10.58979       12.77889
N         11.64120       10.56358       13.31287
N         12.76366        8.64247       13.51590
O         14.71040       13.46049       10.75280
O         17.22115        9.24320       13.07569
C         17.62198       13.69263       13.87207
C         18.27444       15.74458       14.68279
H         18.41638       16.80715       14.67412
C         18.55053       14.84605       15.63672
H         18.97278       14.97978       16.61301
C         17.60971       15.73353       12.34308
C         16.55779       16.63312       12.13616
C         16.51569       17.35224       10.94855
H         15.72944       18.07484       10.78617
C         17.47254       17.16680        9.97130
H         17.42560       17.73142        9.05141
C         18.50466       16.27141       10.18084
H         19.25694       16.15408        9.41752
C         18.60262       15.55752       11.36590
C         15.49915       16.86498       13.18851
H         15.63650       16.12917       13.98637
C         14.09623       16.67522       12.60933
H         13.90986       17.36321       11.78789
H         13.34898       16.86787       13.37694
H         13.97693       15.65605       12.25034
C         15.64313       18.26731       13.78741
H         16.63746       18.40845       14.20434
H         14.91457       18.41502       14.58204
H         15.48274       19.02874       13.02725
C         19.81185       14.69757       11.65423
H         19.49259       13.86395       12.28646
C         20.46461       14.11188       10.40437
H         19.72807       13.61313        9.78208
H         21.21572       13.38201       10.69867
H         20.96404       14.88242        9.82059
C         20.84271       15.54122       12.41614
H         21.13244       16.40352       11.81764
H         21.73289       14.95100       12.62342
H         20.43858       15.90042       13.35971
C         18.56607       12.41928       15.86423
C         17.64187       11.73438       16.66015
C         18.06555       10.62483       17.37857
H         17.36721       10.09619       18.01031
C         19.37660       10.19415       17.31083
H         19.69493        9.33443       17.88268
C         20.28203       10.87262       16.51800
H         21.30638       10.53365       16.47689
C         19.89827       11.98864       15.78784
C         16.21810       12.21756       16.77102
H         16.10512       13.08323       16.11321
C         15.23928       11.13626       16.31358
H         15.39090       10.90913       15.25270
H         14.21596       11.47539       16.45207
H         15.37276       10.22784       16.89352
C         15.91434       12.65804       18.20611
H         15.98351       11.81916       18.89473
H         14.90885       13.06952       18.26954
H         16.61920       13.42244       18.52666
C         20.91808       12.72524       14.95144
H         20.42237       13.55583       14.44555
C         22.01928       13.30990       15.83972
H         21.58926       13.95442       16.60328
H         22.70989       13.90076       15.24159
H         22.58149       12.52147       16.33437
C         21.51471       11.81486       13.87646
H         22.00742       10.95226       14.31883
H         22.24944       12.36418       13.29106
H         20.73648       11.46154       13.20431
C         12.94506       10.00326       13.12915
C         10.77183        9.58822       13.77024
H          9.74610        9.81636       13.98324
C         11.44793        8.43990       13.90616
H         11.11310        7.48051       14.24811
C         11.19657       11.79859       12.80499
C         10.43245       11.83798       11.62888
C          9.97662       13.06629       11.17090
H          9.38504       13.11342       10.26889
C         10.26657       14.23334       11.85098
H          9.89737       15.17984       11.48316
C         11.02257       14.18458       13.00603
H         11.23188       15.09964       13.53902
C         11.49627       12.97717       13.49789
C         10.11067       10.58646       10.84448
H         10.49038        9.71836       11.38677
C         10.80381       10.62250        9.48036
H         10.51301       11.50570        8.91644
H         10.53590        9.74142        8.90066
H         11.88365       10.63640        9.61066
C          8.59959       10.40567       10.68399
H          8.10963       10.42389       11.65511
H          8.38621        9.44993       10.20962
H          8.17119       11.19387       10.07008
C         12.26922       12.93256       14.79190
H         12.57876       11.89904       14.96494
C         11.37373       13.37035       15.95513
H         11.06116       14.40537       15.83745
H         11.90888       13.27987       16.89846
H         10.48263       12.74792       16.00441
C         13.52383       13.80091       14.71411
H         14.19700       13.42347       13.93658
H         14.04559       13.78764       15.66739
H         13.26558       14.83090       14.48896
C         13.60717        7.54195       13.25162
C         14.24087        6.89119       14.31724
C         14.95191        5.72580       14.06312
H         15.41567        5.19062       14.87822
C         15.05840        5.22350       12.78143
H         15.61023        4.31279       12.59977
C         14.44505        5.88184       11.73137
H         14.52449        5.47130       10.73734
C         13.70864        7.03861       11.94473
C         14.11712        7.40658       15.73185
H         13.69413        8.41505       15.69170
C         15.48118        7.48983       16.41813
H         15.92199        6.50381       16.54594
H         15.37235        7.93164       17.40698
H         16.15902        8.10337       15.83040
C         13.17581        6.51069       16.54262
H         12.18939        6.47339       16.08765
H         13.07074        6.89355       17.55572
H         13.56520        5.49599       16.59533
C         12.94092        7.68168       10.81284
H         12.84227        8.74861       11.03285
C         11.54515        7.04887       10.74711
H         11.62998        5.97657       10.57798
H         10.97150        7.48246        9.93118
H         11.00085        7.20598       11.67557
C         13.62698        7.54839        9.45360
H         14.67169        7.84247        9.51515
H         13.13262        8.19547        8.73203
H         13.57018        6.52876        9.07861
C         16.21655       10.48029       10.08134
H         15.91706        9.43405       10.21836
H         15.50458       10.90678        9.36533
C         19.28672       10.74817       10.70907
H         18.96354       11.49340       11.43456
H         20.23685       11.06884       10.29201
H         19.46880        9.81988       11.24166
C         18.17012       11.93639        8.08010
H         17.53964       11.77872        7.21043
H         19.19564       11.99160        7.72797
H         17.91299       12.90295        8.50260
C         18.43555        8.92125        8.40410
H         18.31810        8.03734        9.02520
H         19.46815        8.94885        8.06921
H         17.81157        8.78221        7.52665
C         15.39390       14.26199        9.79904
H         16.46330       14.08899        9.92103
H         15.17794       15.32117        9.99236
C         14.84353       13.84829        8.42647
H         15.48840       13.10224        7.96720
H         14.77372       14.70484        7.75901
C         13.46604       13.24984        8.75922
H         12.65224       13.77317        8.26155
H         13.42417       12.19987        8.47458
C         13.37096       13.39983       10.28413
H         12.84772       14.33230       10.54142
H         12.87918       12.56620       10.78528
C         17.35808        7.96905       12.44296
H         17.84553        8.09903       11.46801
H         16.35919        7.55767       12.29354
C         18.22767        7.12662       13.37013
H         18.73662        6.32414       12.84167
H         17.62006        6.69970       14.16757
C         19.17933        8.18203       13.92695
H         19.61345        7.90871       14.88570
H         19.98568        8.37595       13.21880
C         18.26299        9.39773       14.04630
H         17.80354        9.44476       15.04028
H         18.77797       10.34384       13.86480
