51
CSD_code = QEJHOD | q = 0 | S = 0 | Stoichiometry = C17H29CrNO2Si | MND = 9
Cr         2.44559        3.92232        2.12406
Si        -2.26278        2.70931        2.40958
O          2.68775        2.10746        4.26564
O          2.87325        5.94866        4.25773
N          2.54013        2.86382        3.36873
C          2.71153        5.20820        3.39117
C          0.58274        4.94407        2.74764
H          0.28962        4.91319        3.79293
H          0.48757        5.93051        2.30235
C          0.30457        3.81710        1.95619
H         -0.00302        4.00983        0.93327
C         -0.34963        2.60496        2.54310
H         -0.05599        2.49756        3.58748
H         -0.00779        1.71034        2.02127
C         -2.88407        4.26966        3.31276
H         -2.43266        5.16897        2.90536
H         -2.64312        4.23373        4.37067
H         -3.96133        4.37373        3.22641
C         -2.74997        2.80708        0.56240
H         -2.45083        3.75236        0.11926
H         -3.82473        2.71947        0.43678
H         -2.28988        2.01041       -0.01502
C         -3.02727        1.14525        3.18715
H         -2.71458        0.24561        2.66667
H         -4.11141        1.18207        3.15431
H         -2.73449        1.03942        4.22672
C          2.44901        3.17590       -0.02568
C          3.60135        2.70971        0.64135
C          4.36794        3.84372        1.04758
C          3.71070        5.01005        0.55241
C          2.52146        4.60635       -0.07748
C          1.49260        2.30764       -0.78773
H          1.94484        1.99622       -1.73237
H          0.56579        2.82813       -1.01934
H          1.24289        1.40931       -0.22503
C          4.03646        1.28170        0.77423
H          4.74995        1.03200       -0.01427
H          3.18971        0.60424        0.69248
H          4.51921        1.10860        1.73449
C          5.75827        3.79829        1.60596
H          5.88281        2.94151        2.26516
H          5.97880        4.69980        2.17370
H          6.48966        3.71684        0.79850
C          4.26281        6.40171        0.59996
H          4.98242        6.54679       -0.20870
H          4.77469        6.58935        1.54190
H          3.47468        7.14288        0.48542
C          1.62348        5.51040       -0.87116
H          1.39658        6.42747       -0.32652
H          0.68307        5.02445       -1.12384
H          2.11204        5.79266       -1.80665
