68
CSD_code = QEPJEA | q = 0 | S = 0 | Stoichiometry = C26H38ClOsPSi | MND = 9
Os        -0.83733       -0.00039       10.38224
Cl        -0.58547        0.81146       12.57235
P         -2.06470        1.98392       10.06325
Si         1.43814        0.80957       10.37624
C         -1.78972       -1.87335        9.40108
C         -0.45226       -2.16093        9.84030
C         -0.46599       -2.15560       11.24586
C         -1.80928       -1.94911       11.67393
C         -2.62073       -1.80895       10.55030
C         -0.96354        3.50194        9.84554
C         -0.48381        4.01959       11.20100
C         -1.49354        4.67119        9.01446
C         -3.24364        2.44526       11.44722
C         -4.24212        3.54955       11.11448
C         -3.96277        1.22125       12.00925
C         -3.09262        2.03751        8.49955
C         -2.21835        1.80532        7.26852
C         -4.22151        1.01202        8.51012
C          2.53312       -0.66761       10.87100
C          2.66031       -1.02078       12.21157
C          3.42539       -2.10655       12.59648
C          4.08242       -2.86394       11.64051
C          3.97634       -2.51962       10.30353
C          3.20937       -1.43128        9.92669
C          2.10307        1.47610        8.71055
C          2.85482        2.64475        8.67980
C          3.38355        3.13260        7.49785
C          3.17133        2.45192        6.31140
C          2.42572        1.28516        6.32011
C          1.89859        0.80987        7.50729
H         -0.56518        0.30417        8.88919
H          1.88048        1.87887       11.32063
H         -2.14032       -1.97185        8.38198
H          0.36662       -2.47981        9.21009
H          0.35750       -2.42921       11.88895
H         -2.14238       -1.96640       12.70049
H         -3.69302       -1.69849       10.55036
H         -0.09524        3.07916        9.32111
H          0.39648        4.64345       11.06291
H         -0.21696        3.19620       11.85760
H         -1.25133        4.62312       11.68093
H         -0.71256        5.42852        8.96327
H         -2.36682        5.13316        9.46631
H         -1.73786        4.38356        7.99739
H         -2.56748        2.80348       12.23190
H         -4.80949        3.79373       12.01202
H         -4.94916        3.23807       10.34981
H         -3.74389        4.45452       10.78134
H         -4.52639        1.50455       12.89718
H         -3.24131        0.46470       12.30465
H         -4.65548        0.78720       11.29330
H         -3.52230        3.04342        8.45387
H         -2.75339        2.11034        6.37016
H         -1.97689        0.74921        7.17816
H         -1.28015        2.35147        7.32143
H         -4.68956        0.97032        7.52716
H         -4.99230        1.26048        9.23466
H         -3.82744        0.02494        8.73972
H          2.14569       -0.43528       12.95996
H          3.50909       -2.36651       13.64288
H          4.67724       -3.71629       11.93713
H          4.49401       -3.10207        9.55373
H          3.14083       -1.16067        8.88300
H          3.02956        3.17967        9.60155
H          3.96424        4.04439        7.50022
H          3.58317        2.82784        5.38574
H          2.25542        0.74695        5.39795
H          1.30748       -0.09517        7.49881
