66
CSD_code = QEPWEP | q = 0 | S = 0 | Stoichiometry = C18H36MoO4P2SSi4 | MND = 6
P          9.98850        5.16652        0.28187
Mo         8.44108        6.61648        1.52934
S         11.18942        6.61606       -0.68009
O          6.64281        4.52318        2.91300
O          6.45180        6.61633       -0.85909
O         10.22082        6.61561        4.07877
Si         9.34082        2.34411        0.71244
Si        11.72486        3.38919       -1.56941
C          7.32096        5.28220        2.39101
C          7.20528        6.61721        0.00159
C          9.60018        6.61581        3.11894
C         10.40154        3.62981       -0.22220
C          9.82361        0.53553        0.38599
H         10.86379        0.34563        0.62327
H          9.65542        0.24644       -0.64379
H          9.22206       -0.11582        1.01101
C          7.53396        2.62035        0.16519
H          6.83572        2.10448        0.81672
H          7.36854        2.25893       -0.84566
H          7.28032        3.67918        0.18148
C          9.57212        2.66993        2.57864
H         10.55226        2.34439        2.91565
H          8.83063        2.14184        3.17012
H          9.48154        3.73055        2.80788
C         11.25659        4.44160       -3.09751
H         11.93248        5.28145       -3.21961
H         10.25268        4.84615       -3.00427
H         11.29073        3.85234       -4.00867
C         13.41739        3.88973       -0.84304
H         14.19950        3.81743       -1.59232
H         13.69414        3.24465       -0.01447
H         13.40231        4.91155       -0.47784
C         11.83011        1.58040       -2.14439
H         10.88057        1.22070       -2.52325
H         12.14721        0.91718       -1.34971
H         12.55526        1.49795       -2.94708
P          9.98872        8.06575        0.28195
O          6.64379        8.70912        2.91515
Si         9.34274       10.88848        0.71433
Si        11.72165        9.84319       -1.57254
C          7.32150        7.95028        2.39233
C         10.40131        9.60252       -0.22240
C          9.82693       12.69688        0.38888
H         10.86776       12.88537        0.62444
H          9.65717       12.98722       -0.64029
H          9.22726       13.34829        1.01565
C          7.53492       10.61433        0.16924
H          6.83797       11.13006        0.82227
H          7.36840       10.97696       -0.84099
H          7.28045        9.55569        0.18473
C          9.57609       10.56100        2.57998
H         10.55764       10.88372        2.91560
H          8.83697       11.09068        3.17302
H          9.48309        9.50049        2.80873
C         11.25038        8.78985       -3.09908
H         11.92624        7.95015       -3.22227
H         10.24679        8.38505       -3.00343
H         11.28231        9.37866       -4.01060
C         13.41618        9.34373       -0.85012
H         14.19643        9.41652       -1.60127
H         13.69452        9.98895       -0.02220
H         13.40260        8.32188       -0.48492
C         11.82431       11.65177       -2.14866
H         10.87338       12.01087       -2.52461
H         12.14368       12.31549       -1.35531
H         12.54682       11.73418       -2.95373
