58
CSD_code = QEZQER | q = 0 | S = 0 | Stoichiometry = C21H33ClNNbSi | MND = 12
Nb         3.35185       12.92851        9.01047
Cl         1.07456       13.23057        8.91279
Si         4.23006       15.48472        6.78028
N          3.45939       11.24421        9.52407
C          3.39888       10.04062       10.25836
C          2.03687        9.36755       10.00586
H          1.25358       10.11569       10.12570
H          1.87700        8.55274       10.70668
H          1.98984        8.98086        8.99231
C          4.55779        9.10153        9.88367
H          4.46475        8.78202        8.84903
H          4.55593        8.22383       10.52407
H          5.50101        9.63139        9.99956
C          3.50598       10.42815       11.74819
H          4.46394       10.91329       11.92643
H          3.42434        9.55003       12.38271
H          2.70271       11.12586       11.98530
C          3.30546       13.94368        6.21450
C          3.69133       12.59484        6.74199
C          2.62810       11.69974        6.22715
C          1.70379       12.43551        5.55218
C          2.11699       13.81953        5.55431
C          5.10742       12.12290        6.41343
H          5.31681       11.16759        6.89646
H          5.85509       12.84745        6.73176
H          5.20455       11.99537        5.33331
C          2.68023       10.21277        6.37046
H          1.67962        9.79689        6.46871
H          3.25959        9.95431        7.25444
H          3.14971        9.76443        5.49260
C          0.44917       11.95875        4.89868
H          0.50475       12.09380        3.81779
H         -0.40573       12.52687        5.26452
H          0.28026       10.90559        5.10454
C          1.30731       14.89450        4.91313
H          0.42146       15.10856        5.51364
H          0.96863       14.57326        3.92906
H          1.88415       15.80721        4.80434
C          5.92049       15.75021        5.92877
H          6.62767       14.94987        6.11843
H          6.37261       16.67730        6.26675
H          5.78867       15.82095        4.85433
C          3.27777       17.13504        6.67201
H          2.23964       17.03511        6.97018
H          3.29833       17.52317        5.65948
H          3.73801       17.88062        7.31426
C          4.43328       15.08684        8.61527
C          3.44271       15.31912        9.58534
H          2.58922       15.97497        9.46386
C          3.78283       14.65474       10.78088
C          5.00201       13.97024       10.54731
H          5.60932       13.48595       11.30369
C          5.38909       14.21527        9.20505
H          6.36609       13.97974        8.79676
C          3.05280       14.74136       12.08727
H          3.28946       13.88558       12.72082
H          1.97333       14.77299       11.92876
H          3.34193       15.65038       12.62111
