59
CSD_code = QIGKEY | q = 0 | S = 0 | Stoichiometry = C22H33NOSiW | MND = 10
C         19.35527        3.31091        4.10077
C         19.17055        4.25073        5.16875
C         18.08204        3.80517        5.96430
C         17.59116        2.58086        5.40605
C         18.38784        2.25778        4.28015
C         20.55313        3.27088        3.19283
H         21.38195        2.75706        3.68557
H         20.87483        4.28003        2.93968
H         20.32419        2.74609        2.26738
C         20.12201        5.36646        5.49153
H         19.72438        6.00561        6.27499
H         20.32174        5.97956        4.61257
H         21.07235        4.95262        5.83581
C         17.72207        4.35196        7.31468
H         16.79001        3.92781        7.68242
H         17.62028        5.43503        7.29731
H         18.50865        4.09569        8.02810
C         16.61123        1.65277        6.06988
H         17.12195        1.05851        6.83167
H         16.17415        0.96270        5.34914
H         15.80213        2.19411        6.56217
C         18.36482        0.95781        3.53236
H         18.79666        1.07289        2.54102
H         17.34943        0.58222        3.41496
H         18.94591        0.20937        4.07620
C         15.00996        3.62041        3.36400
C         15.10722        4.98370        3.68080
C         15.66839        5.36333        4.92436
C         17.43192        7.90304        5.70484
H         17.83839        7.60331        6.66645
H         17.40060        8.98847        5.69874
H         18.12589        7.59607        4.92919
C         14.65158        7.39463        6.98120
H         13.62577        7.07066        6.83798
H         14.62634        8.43307        7.29280
H         15.06598        6.81880        7.80320
C         14.90413        8.23406        3.97950
H         15.50497        8.16779        3.07723
H         14.85344        9.28174        4.25987
H         13.89514        7.91110        3.74022
C         14.44102        3.13410        2.10968
C         13.77917        1.90537        2.07581
H         13.69869        1.31906        2.98189
C         13.21833        1.43073        0.90519
H         12.70837        0.47788        0.90166
C         13.31011        2.17271       -0.25951
H         12.87340        1.80257       -1.17523
C         13.97773        3.38818       -0.24498
H         14.06595        3.96310       -1.15525
C         14.53960        3.86470        0.92192
H         15.09607        4.79178        0.91514
N         17.66257        5.79279        2.91955
O         17.99890        6.83230        2.43576
Si        15.68373        7.20123        5.38132
W         17.31151        4.27114        3.74854
H         17.29421        3.58466        2.26786
H         14.89876        2.92343        4.20166
H         14.82164        5.73289        2.94511
H         15.44286        4.67500        5.74453
