59
CSD_code = QIGKOI | q = 0 | S = 0 | Stoichiometry = C22H28F5NOSiW | MND = 10
C         -2.06552        4.08436       18.64142
C         -1.86374        2.88284       17.89526
C         -0.60205        2.31822       18.31263
C         -0.00784        3.20075       19.24439
C         -0.91336        4.28842       19.46274
C         -3.34129        4.87386       18.66703
H         -3.76767        4.94467       17.66756
H         -3.17492        5.88358       19.03711
H         -4.07227        4.38607       19.31482
C         -2.93376        2.17642       17.11154
H         -2.51373        1.38505       16.49465
H         -3.45827        2.87287       16.45897
H         -3.66126        1.72860       17.79151
C         -0.16757        0.90709       18.05177
H         -0.65340        0.25296       18.77955
H          0.90732        0.78762       18.16660
H         -0.45316        0.57021       17.05623
C          1.20277        2.90483       20.08158
H          0.92706        2.25705       20.91700
H          1.63166        3.81605       20.49508
H          1.97372        2.39796       19.50510
C         -0.83650        5.21660       20.63976
H         -1.14693        4.67230       21.53486
H         -1.50176        6.06963       20.52313
H          0.17570        5.58050       20.81358
C          0.13480        6.59456       17.87870
C          1.34279        5.91371       17.63438
H          1.97718        5.62910       18.47943
C          1.63564        5.44324       16.34369
H          2.55552        4.85886       16.30533
C          0.32139        7.99565       14.73963
H          0.41587        8.50911       13.78699
H          0.57252        8.71268       15.51565
H         -0.72142        7.71594       14.84895
C          3.25321        7.11666       14.42855
H          3.29689        7.69013       13.50908
H          3.96234        6.30051       14.33635
H          3.59721        7.76060       15.23200
C          0.97145        5.31537       13.30742
H         -0.06340        5.00466       13.40534
H          1.58909        4.42257       13.27492
H          1.07217        5.81947       12.35180
C          0.39367        2.96568       15.74888
C         -0.32895        2.50140       14.65655
C          0.11825        1.50134       13.80066
C          1.35564        0.90907       14.03352
C          2.10794        1.31536       15.13063
C          1.60238        2.31421       15.94860
N         -1.33852        5.23799       15.99627
O         -2.20327        5.77606       15.38649
F         -1.54391        3.04216       14.43454
F         -0.62846        1.09226       12.76585
F          1.80937       -0.05526       13.22284
F          3.28992        0.73549       15.39159
F          2.30884        2.67337       17.05616
Si         1.47546        6.47214       14.73907
W         -0.32194        4.42780       17.18770
H         -0.02901        6.96494       18.88567
H         -0.23767        7.26896       17.11600
