62
CSD_code = QINZIY | q = 0 | S = 0 | Stoichiometry = C29H27FeO3PSi | MND = 6
Fe         4.19414        3.55001        0.52424
H          5.27276        2.66863        0.95652
P          5.28623        3.98112       -1.33079
Si         3.04207        3.04787        2.48062
C          2.81872        4.55930        0.11337
O          1.91709        5.19901       -0.19248
C          3.52062        2.05203       -0.10679
O          3.16568        1.03800       -0.50636
C          5.10274        4.71266        1.49243
O          5.77490        5.39493        2.11866
C          1.17279        2.78943        2.13931
C          0.24472        3.79983        2.36656
H          0.57680        4.73676        2.78981
C         -1.09531        3.62450        2.07002
H         -1.79744        4.42541        2.25478
C         -1.53689        2.42535        1.53826
H         -2.58269        2.28546        1.30448
C         -0.62942        1.40394        1.31214
H         -0.96607        0.46170        0.90286
C          0.70843        1.58867        1.60878
H          1.40612        0.78172        1.43613
C          3.60279        1.49695        3.44821
C          2.67852        0.71800        4.13725
H          1.63140        0.97998        4.09483
C          3.07782       -0.38071        4.87719
H          2.34165       -0.97324        5.40206
C          4.41837       -0.71924        4.94864
H          4.73316       -1.57706        5.52569
C          5.35318        0.05157        4.27850
H          6.40269       -0.20187        4.33452
C          4.94467        1.14624        3.53836
H          5.67978        1.74372        3.01868
C          3.09624        4.45512        3.78030
C          3.29962        4.18854        5.12957
H          3.44488        3.16648        5.44748
C          3.32201        5.20684        6.06628
H          3.48471        4.97555        7.10949
C          3.13651        6.51973        5.66943
H          3.15301        7.31727        6.39835
C          2.93273        6.80565        4.32992
H          2.78901        7.82847        4.01024
C          2.91685        5.78193        3.40086
H          2.76603        6.01883        2.35545
C          6.43474        2.69820       -1.94362
H          6.90852        3.00983       -2.87606
H          5.85243        1.79036       -2.11047
H          7.18426        2.48846       -1.18103
C          4.28379        4.25104       -2.84529
H          3.59036        5.07661       -2.68929
H          3.71055        3.34533       -3.04938
H          4.93642        4.47712       -3.69010
C          6.28630        5.50384       -1.32043
C          7.66520        5.53479       -1.48428
H          8.21837        4.62349       -1.65531
C          8.34163        6.74180       -1.41827
H          9.41432        6.76022       -1.54459
C          7.65228        7.91888       -1.18559
H          8.18556        8.85619       -1.13224
C          6.27718        7.89243       -1.00916
H          5.73782        8.80803       -0.81648
C          5.60042        6.69076       -1.06868
H          4.52954        6.65762       -0.90873
