114
CSD_code = QIQQOW | q = 0 | S = 0 | Stoichiometry = C30H73N6Si4Y | MND = 5
Y          2.35639        7.39032       16.37327
N          2.99542        8.61205       18.40455
N          1.60582        9.51114       16.90162
N          2.17827       10.83136       18.80806
N          0.52887        6.24431       15.21297
N          1.43339        5.38938       17.06594
N         -0.43167        4.23787       16.11561
Si         3.37054       12.06691       18.44874
Si         0.91640       10.84666       20.02634
Si         0.01860        2.76902       15.26963
Si        -1.95288        4.61201       16.90536
C          4.21538        7.29362       14.90800
C          4.34440        5.92766       14.19004
H          5.20240        5.93851       13.50371
H          3.45529        5.69983       13.60229
H          4.50503        5.11752       14.90442
C          4.11860        8.36048       13.78802
H          4.98064        8.28048       13.11139
H          4.11725        9.37121       14.20024
H          3.21658        8.23146       13.18600
C          5.58123        7.53061       15.59660
H          6.39114        7.48954       14.85527
H          5.78627        6.76562       16.34824
H          5.62414        8.50881       16.07587
C          3.84268        8.68624       19.58065
H          3.74339        9.67496       20.04488
C          3.44903        7.63356       20.62089
H          2.41479        7.76985       20.92453
H          4.08448        7.72676       21.49967
H          3.57066        6.63431       20.20892
C          5.30466        8.47977       19.17332
H          5.61195        9.24918       18.46970
H          5.41865        7.50713       18.69697
H          5.95104        8.52330       20.04777
C          0.75625       10.55710       16.36966
H          0.93029       11.50025       16.90573
C         -0.71536       10.15587       16.52289
H         -0.98240       10.09976       17.57409
H         -0.86614        9.17559       16.07520
H         -1.36409       10.87816       16.03073
C          1.09749       10.75576       14.88932
H          2.10624       11.14649       14.78300
H          0.40155       11.45109       14.42422
H          1.04485        9.79321       14.37511
C          2.26444        9.64665       18.04072
C          4.26930       11.61800       16.82713
H          4.11305       10.57082       16.57962
H          5.33896       11.78994       16.90691
H          3.90816       12.21369       15.99388
C          2.51473       13.76183       18.26501
H          2.18414       14.13999       19.22613
H          1.65351       13.73310       17.60603
H          3.21543       14.48404       17.85862
C          4.67823       12.25358       19.83222
H          4.22359       12.31326       20.81525
H          5.24233       13.16904       19.67993
H          5.38849       11.43299       19.84811
C         -0.34277       12.24628       19.69839
H          0.08456       13.21849       19.91693
H         -1.20838       12.12422       20.34249
H         -0.69625       12.26674       18.67311
C          1.66482       11.16433       21.75434
H          2.08689       12.16165       21.82252
H          2.44455       10.45392       22.00996
H          0.89142       11.09009       22.51242
C          0.00342        9.16828       20.04048
H          0.15510        8.64295       20.97931
H          0.35432        8.52365       19.23852
H         -1.06853        9.29583       19.91821
C         -0.31761        6.15947       14.03828
H         -0.95044        5.26568       14.09977
C         -1.22906        7.38363       13.92300
H         -1.88001        7.45184       14.79052
H         -1.84639        7.30552       13.03002
H         -0.63026        8.28963       13.85537
C          0.56145        6.05104       12.78747
H          1.17725        5.15618       12.83916
H          1.21424        6.92067       12.72235
H         -0.05466        6.00364       11.89168
C          1.54887        4.43472       18.14803
H          1.01253        3.50730       17.90117
C          3.03540        4.11606       18.33964
H          3.43008        3.61640       17.45791
H          3.18527        3.47300       19.20461
H          3.58794        5.04852       18.48213
C          0.96135        5.02879       19.43359
H         -0.11474        5.13892       19.33875
H          1.39489        6.01292       19.60225
H          1.17791        4.38973       20.28769
C          0.51419        5.28903       16.12095
C          1.89603        2.79186       14.94297
H          2.27767        3.80758       14.98411
H          2.13318        2.38261       13.96564
H          2.43666        2.20515       15.67931
C         -0.88902        2.57137       13.59691
H         -1.95317        2.76270       13.68687
H         -0.77225        1.55395       13.23525
H         -0.49998        3.23491       12.83110
C         -0.44037        1.24865       16.32535
H         -1.51464        1.10594       16.36225
H         -0.08078        1.31683       17.34650
H         -0.01048        0.35479       15.88464
C         -3.40990        4.43357       15.68260
H         -3.51828        3.40670       15.34868
H         -3.30046        5.05987       14.80291
H         -4.33855        4.71257       16.17078
C         -1.92262        6.40027       17.57877
H         -0.95239        6.86583       17.41951
H         -2.13278        6.43070       18.64396
H         -2.67036        7.01862       17.09056
C         -2.28491        3.39765       18.34415
H         -1.39125        3.15394       18.90854
H         -2.70430        2.46706       17.97805
H         -3.00659        3.82273       19.03567
