59
CSD_code = QISMEK | q = 0 | S = 0 | Stoichiometry = C19H36ClNSiTi | MND = 8
Ti         4.70881        7.80697        2.13461
Cl         5.11314        7.21652        0.06377
Si         4.49573        5.99360        4.35337
N          3.60896        6.49323        2.94046
C          3.56371        9.45192        1.63567
C          2.65628        9.99356        2.74073
C          1.62200       10.99470        2.20523
C          0.73788       11.55284        3.31417
C          1.79070        6.58384        1.28885
C          3.18898        4.53446        1.52873
C          1.57056        5.18072        3.33577
C          2.56528        5.71539        2.29438
C          5.12924        4.18374        4.48883
C          3.56130        6.27266        6.00869
C          5.86761        7.25587        3.99346
C          5.58787        8.65285        4.10957
C          6.29777        9.34473        3.09703
C          7.00715        8.37981        2.32739
C          6.74516        7.10450        2.87746
C          4.88761        9.27955        5.28203
C          6.47439       10.83188        2.98114
C          7.96142        8.68678        1.20955
C          7.35633        5.81513        2.40774
H          4.21853       10.27018        1.28734
H          2.92633        9.19188        0.77207
H          2.12002        9.16776        3.22937
H          3.25472       10.50484        3.49988
H          2.14489       11.81693        1.70966
H          0.99623       10.50190        1.45636
H          1.33901       12.07050        4.05916
H          0.01303       12.25638        2.91076
H          0.19633       10.75009        3.81079
H          2.45604        6.91037        0.48644
H          0.97966        6.00540        0.84965
H          1.36462        7.45199        1.79080
H          3.63521        3.82823        2.22267
H          2.43080        4.01799        0.94426
H          3.96098        4.90719        0.85372
H          1.16762        6.00589        3.91800
H          0.75137        4.66122        2.84455
H          2.06534        4.48982        4.01165
H          4.31565        3.52299        4.77255
H          5.55173        3.80709        3.56411
H          5.88898        4.10180        5.26000
H          2.81733        7.05873        5.93798
H          3.04887        5.36546        6.31048
H          4.24833        6.53447        6.80581
H          4.98612       10.36318        5.26192
H          3.82891        9.02383        5.30793
H          5.33882        8.92044        6.20779
H          7.32885       11.15191        3.58350
H          6.66758       11.12573        1.94993
H          5.59482       11.37015        3.33118
H          8.95050        8.93112        1.60720
H          8.06067        7.83484        0.53761
H          7.61478        9.53903        0.62336
H          7.46360        5.12690        3.24357
H          6.74219        5.33733        1.63760
H          8.34527        5.99500        1.98580
