51
CSD_code = QIVZEA | q = 0 | S = 0 | Stoichiometry = C18H28Cl2Si2Ti | MND = 12
Ti        10.61785        1.45122        8.21850
Cl        10.11722        0.17894        6.43481
Cl        11.29781        3.11236        6.89728
Si        10.55737       -1.72311        9.83709
Si         8.34373       -0.88070        9.70002
C         11.11377       -2.25510       11.59198
C         10.89738       -3.14452        8.60835
C          7.29716       -1.68859        8.32408
C          7.37243       -0.92584       11.35061
C         11.63976       -0.26328        9.32033
C         12.38768       -0.17294        8.11939
C         13.08667        1.04234        8.10158
C         12.81290        1.73816        9.30333
C         11.91968        0.93118       10.04992
C          8.61135        0.93037        9.23807
C          8.20102        1.57716        8.04525
C          8.59354        2.92156        8.09319
C          9.25121        3.14017        9.32114
C          9.25129        1.92355       10.03352
C         13.50843        2.98348        9.80864
C         14.41024        3.58627        8.72813
C         14.36762        2.58952       11.02167
C         12.47806        4.03864       10.22790
H         12.16859       -2.51266       11.61647
H         10.95015       -1.47060       12.32424
H         10.55533       -3.12574       11.91830
H         11.94189       -3.44344        8.61305
H         10.30483       -4.02046        8.85204
H         10.63932       -2.84281        7.59725
H          6.31433       -1.23219        8.24493
H          7.79206       -1.58828        7.36227
H          7.15207       -2.74745        8.51313
H          6.41991       -0.41092       11.26823
H          7.16785       -1.95042       11.64217
H          7.92759       -0.46142       12.15951
H         12.47366       -0.95202        7.37395
H         13.76427        1.35629        7.32026
H         11.67754        1.07922       11.09409
H          7.61268        1.12401        7.25942
H          8.38188        3.67540        7.34606
H          9.56224        4.10470        9.69803
H          9.49082        1.81492       11.08345
H         13.82880        3.81933        7.83882
H         14.86277        4.50544        9.09423
H         15.20889        2.89789        8.46164
H         13.74710        2.22729       11.83783
H         15.06815        1.80321       10.74918
H         14.93242        3.44947       11.37470
H         11.90585        4.35144        9.35436
H         11.80071        3.64614       10.98530
H         12.98274        4.91006       10.64092
