68
CSD_code = QODHAV | q = 0 | S = 0 | Stoichiometry = C24H35O5PSi2W | MND = 6
P          3.75745        2.99561        1.52354
C          3.63731        1.40475        1.17026
C          3.79516        0.11236        1.11704
H          4.12337       -0.36908        0.19984
C          3.53758       -0.83877        2.26163
C          4.81936       -1.65086        2.49557
H          5.09049       -2.19001        1.58431
H          5.63995       -0.97198        2.74013
C          3.18333       -0.08891        3.54483
H          3.99509        0.60097        3.79448
H          2.27861        0.50186        3.38847
C          2.39794       -1.79993        1.90221
H          1.48042       -1.23358        1.72370
H          2.64283       -2.34066        0.98433
C          4.60048       -2.64192        3.63777
H          5.52068       -3.21562        3.79591
C          2.18259       -2.78960        3.04702
H          1.36435       -3.47009        2.78422
C          2.96642       -1.08073        4.68510
H          2.71074       -0.53043        5.59740
C          1.82349       -2.02794        4.32205
H          1.64987       -2.73258        5.13834
H          0.90350       -1.45869        4.16877
C          4.24609       -1.88247        4.91482
H          5.06165       -1.20833        5.18592
H          4.10385       -2.58547        5.73868
C          3.46138       -3.59413        3.27581
H          3.30780       -4.31364        4.08309
H          3.71605       -4.15457        2.37300
C          2.23864        3.90933        1.06811
H          2.50998        4.95143        1.27183
Si         0.82809        3.48795        2.30306
C          3.67849        4.22551       -1.61104
H          4.44326        3.53099       -1.26807
H          4.00037        5.22661       -1.33744
H          3.65317        4.17666       -2.69531
C          1.44990        2.05997       -1.39002
H          1.50485        1.97229       -2.47057
H          0.42934        1.84146       -1.09567
H          2.09097        1.29553       -0.96344
C          0.68760        5.08548       -1.37100
H          0.70740        5.21823       -2.44744
H          0.86490        6.05506       -0.91778
H         -0.31513        4.77276       -1.10102
Si         1.98849        3.79969       -0.83587
C          0.09166        1.77312        1.91635
H          0.84737        1.09829        1.52812
H         -0.69979        1.84417        1.17748
H         -0.33636        1.32255        2.80659
C         -0.52572        4.82403        2.19540
H         -1.28755        4.65360        2.94890
H         -1.01614        4.82351        1.22841
H         -0.12109        5.81746        2.35908
C          1.59559        3.52705        4.04868
H          0.87637        3.25758        4.81643
H          1.96985        4.51913        4.28770
H          2.43271        2.83716        4.12504
W          5.70996        4.05579        2.62186
C          4.59965        5.65112        3.08382
O          3.96166        6.56111        3.35760
C          5.26175        3.20968        4.37590
O          5.08597        2.73721        5.40225
C          6.75035        2.40772        2.16477
O          7.29547        1.43226        1.92570
C          6.26117        4.94050        0.91289
O          6.63560        5.48730       -0.01783
C          7.27252        4.89477        3.50299
O          8.17477        5.38230        4.01004
