84
CSD_code = QOLWOF | q = 0 | S = 0 | Stoichiometry = C29H48CrN4Si2 | MND = 4
Cr         3.96521        3.13795        3.69782
Si         1.70394        3.11355        1.58130
Si         0.98619        1.76561        4.21066
N          5.23190        1.72792        3.42938
N          5.23778        4.37006        2.92491
N          3.17365        4.79075        4.38417
N          2.12263        2.50932        3.14935
C          7.28696        0.49037        2.74806
H          6.97489       -0.25182        3.47842
H          8.31504        0.78330        2.95832
H          7.27327        0.03557        1.75832
C          6.38391        1.70247        2.77015
C          6.83737        2.82322        2.07872
H          7.73649        2.69923        1.49360
C          6.29064        4.09783        2.14908
C          6.97844        5.18400        1.35932
H          6.26709        5.70546        0.71898
H          7.75410        4.75552        0.73176
H          7.44179        5.92129        2.01647
C          4.83544        0.59719        4.16588
C          4.29959       -0.52862        3.51372
C          3.87005       -1.60167        4.28077
H          3.43563       -2.46255        3.79522
C          4.01799       -1.60415        5.65413
H          3.69074       -2.45468        6.23406
C          4.61076       -0.52499        6.28431
H          4.75505       -0.55633        7.35268
C          5.01850        0.58705        5.56394
C          4.23738       -0.61398        2.00456
H          4.71851        0.27421        1.58789
C          2.79533       -0.62826        1.50242
H          2.26467       -1.50459        1.86686
H          2.78294       -0.65184        0.41435
H          2.28464        0.26593        1.84351
C          4.97229       -1.86007        1.49553
H          4.41764       -2.76262        1.74096
H          5.96369       -1.94530        1.93288
H          5.07418       -1.81304        0.41324
C          5.69923        1.75327        6.25500
H          5.46803        2.67165        5.67830
C          5.22859        1.97259        7.69347
H          4.14387        1.96084        7.75819
H          5.58379        2.93729        8.05098
H          5.62585        1.20693        8.35622
C          7.21893        1.55474        6.23866
H          7.48024        0.60788        6.70826
H          7.70848        2.35878        6.78474
H          7.59581        1.55394        5.22050
C          4.89383        5.76663        3.03923
H          5.76014        6.35897        3.37088
H          4.57599        6.17091        2.06469
C          3.77317        5.94254        4.01245
C          3.39062        7.19076        4.45535
H          3.91556        8.06473        4.09883
C          2.32879        7.31141        5.34619
H          2.00684        8.27401        5.70806
C          1.70590        6.13384        5.74323
H          0.87575        6.15415        6.43232
C          2.14412        4.92665        5.24796
H          1.65709        4.01421        5.54227
C          3.19541        2.92214        0.39533
H          4.13210        3.02018        0.93548
H          3.17247        3.67804       -0.38339
H          3.19393        1.95483       -0.09466
C          1.22445        4.97299        1.64374
H          0.38669        5.13649        2.31382
H          0.93389        5.33360        0.66182
H          2.04562        5.58912        1.99346
C          0.21623        2.23290        0.76386
H          0.40575        1.17970        0.59179
H         -0.00515        2.68605       -0.19688
H         -0.67306        2.31342        1.37737
C         -0.61755        2.80698        4.43652
H         -0.42730        3.87427        4.39342
H         -1.10097        2.59332        5.38548
H         -1.33251        2.57553        3.65405
C          0.34030        0.01734        3.77048
H         -0.04028       -0.03757        2.75728
H         -0.47411       -0.24500        4.43981
H          1.11170       -0.73602        3.88424
C          1.83516        1.56299        5.91945
H          2.03561        0.51762        6.12731
H          1.21898        1.94020        6.73053
H          2.78759        2.08988        5.93826
