61
CSD_code = QORHIP | q = 0 | S = 0 | Stoichiometry = C26H32Si2Zr | MND = 12
Zr        -6.29034        0.97860       -4.86711
Si        -9.93688        3.36106        1.07682
Si        -5.68350        2.44587       -1.60078
C         -8.46472        0.73410       -4.96145
C         -9.29752        0.22134       -5.95430
H         -8.86711       -0.14053       -6.89111
C        -10.67856        0.15741       -5.79697
H        -11.29734       -0.24596       -6.58742
C        -11.26247        0.61223       -4.62724
H        -12.33532        0.56436       -4.50404
C        -10.47184        1.12801       -3.61490
H        -10.92249        1.48429       -2.69807
C         -9.08799        1.18910       -3.77311
C         -8.20379        1.72585       -2.71246
C         -8.81121        2.21624       -1.52985
C         -9.28532        2.65961       -0.50626
C         -6.85305        1.74682       -2.88984
C        -11.78131        3.79439        0.85992
H        -11.92421        4.50312        0.04971
H        -12.19623        4.23674        1.76138
H        -12.36743        2.91011        0.62822
C         -9.72259        2.06639        2.46185
H        -10.25589        1.15004        2.22774
H        -10.09985        2.43351        3.41227
H         -8.67687        1.80877        2.60111
C         -8.93183        4.92916        1.49215
H         -7.87626        4.69931        1.60365
H         -9.26931        5.38657        2.41799
H         -9.02381        5.67281        0.70611
C         -5.80945        1.72691        0.17045
H         -6.75566        2.00262        0.62251
H         -5.01039        2.09553        0.80626
H         -5.75379        0.64250        0.16452
C         -5.82487        4.35462       -1.46795
H         -5.76523        4.83147       -2.44206
H         -5.04108        4.77263       -0.84410
H         -6.77981        4.62505       -1.03005
C         -3.92011        2.00947       -2.25298
H         -3.57849        1.05804       -1.85497
H         -3.19485        2.75699       -1.94669
H         -3.89451        1.94851       -3.34513
C         -6.89054        2.50866       -6.79270
H         -7.82128        2.47817       -7.34594
C         -6.61638        3.35065       -5.69365
H         -7.30810        4.05364       -5.24554
C         -5.24987        3.21230       -5.36841
H         -4.70854        3.83010       -4.66267
C         -4.67992        2.27881       -6.26293
H         -3.62153        2.05796       -6.35758
C         -5.69742        1.84185       -7.14203
H         -5.55710        1.22354       -8.02235
C         -5.39128       -0.94640       -3.56443
H         -5.27980       -0.94132       -2.48693
C         -6.50301       -1.45226       -4.27215
H         -7.39454       -1.88042       -3.82965
C         -6.19199       -1.42735       -5.65062
H         -6.79841       -1.85250       -6.44181
C         -4.88520       -0.92117       -5.79295
H         -4.30915       -0.90558       -6.71092
C         -4.39118       -0.61123       -4.50769
H         -3.36675       -0.34233       -4.27685
