73
CSD_code = QOTBUW | q = 0 | S = 0 | Stoichiometry = C28H37MoN5Si2 | MND = 5
Mo         5.42531        2.82766        0.15775
N          4.19693        4.05737        0.18297
C          3.06843        4.77331        0.07041
C          1.92206        4.17156       -0.48160
H          2.00591        3.13648       -0.79566
C          0.75052        4.88365       -0.61013
H         -0.12171        4.40846       -1.03604
C          0.68211        6.20696       -0.19619
H         -0.23845        6.76135       -0.29876
C          1.80250        6.81239        0.34934
H          1.75390        7.84262        0.67267
C          2.98393        6.11222        0.48428
H          3.86092        6.58247        0.90950
N          5.46915        1.78630       -1.57750
N          4.76511        1.02897        0.81097
C          5.46277        0.41797       -1.36837
C          5.07934        0.00503       -0.06605
C          5.06466       -1.35015        0.23578
H          4.78298       -1.66928        1.22671
C          5.42081       -2.29531       -0.71589
H          5.40777       -3.34389       -0.45667
C          5.79323       -1.89359       -1.98313
H          6.07486       -2.62416       -2.72732
C          5.81222       -0.54418       -2.30652
H          6.11245       -0.23551       -3.29533
Si         5.47480        2.46627       -3.17708
C          7.17550        2.32157       -4.06781
H          7.96409        2.79872       -3.49031
H          7.13373        2.81841       -5.03226
H          7.47859        1.29479       -4.24551
C          4.08795        1.70340       -4.25504
H          3.99559        0.63391       -4.09872
H          4.27689        1.87033       -5.31056
H          3.12781        2.15165       -4.01697
C          5.13629        4.33922       -3.03429
H          4.39939        4.55767       -2.26657
H          4.75611        4.72086       -3.97577
H          6.04086        4.89385       -2.80506
Si         3.86888        0.73872        2.27172
C          3.35467        2.42526        3.00277
H          4.14830        2.86219        3.60075
H          2.49438        2.30266        3.65182
H          3.08464        3.13423        2.22507
C          4.90187       -0.12466        3.64801
H          5.24507       -1.11492        3.36620
H          4.30571       -0.23284        4.54892
H          5.77985        0.46249        3.90771
C          2.26836       -0.25044        1.91636
H          1.51641        0.38963        1.46413
H          1.84926       -0.65573        2.83168
H          2.44347       -1.07704        1.23623
N          6.39151        3.04556        1.87838
C          6.38275        4.13898        2.68508
H          5.59178        4.85093        2.48121
C          7.29925        4.34693        3.68360
H          7.23834        5.24103        4.28421
C          8.30169        3.40231        3.91832
H          9.03554        3.54558        4.69328
C          8.30169        2.26258        3.12256
H          9.03496        1.48471        3.27249
C          7.35259        2.11657        2.13694
H          7.30189        1.20405        1.54316
N          7.07221        3.77233       -0.42163
C          8.16585        2.98541       -0.61731
H          7.96941        1.91868       -0.72402
C          9.44338        3.48135       -0.74221
H         10.26494        2.79834       -0.89641
C          9.66159        4.85258       -0.67720
H         10.65106        5.26810       -0.76621
C          8.54210        5.67174       -0.50947
H          8.64965        6.74454       -0.47239
C          7.29560        5.11244       -0.39315
H          6.40812        5.72103       -0.26595
