123
CSD_code = QUGCUQ | q = 0 | S = 0 | Stoichiometry = C64H53Cl2NbO2Si | MND = 5
Nb         0.96627        3.30325        5.26837
Cl         2.76505        3.45397        3.66974
Cl        -0.03967        1.54572        6.42248
Si        -1.94666        4.70136        6.53284
O          2.16864        3.39579        6.56485
O         -0.08395        3.25484        3.83997
C         -0.12891        5.10665        6.10524
C         -2.81560        3.56230        5.26556
C         -2.89675        6.36542        6.58287
C         -1.98227        3.91826        8.27455
C          3.05070        3.35664        7.54492
C          3.55268        2.11494        7.98012
C          4.38767        2.07090        9.09926
C          4.71052        3.24739        9.76353
C          4.27124        4.48448        9.30815
C          3.44144        4.54752        8.18759
C         -0.49746        3.17830        2.58400
C         -1.05886        1.98265        2.09762
C         -1.44736        1.89004        0.76043
C         -1.25280        2.97311       -0.08651
C         -0.70203        4.15911        0.37801
C         -0.34064        4.27724        1.72168
C          3.20543        0.89549        7.22698
C          2.68424       -0.22572        7.86669
C          2.46659       -1.39299        7.16011
C          2.75897       -1.45487        5.80709
C          3.23849       -0.33144        5.15299
C          3.46014        0.84039        5.85600
C          4.96850        0.79982        9.57039
C          5.66549       -0.03305        8.69981
C          6.21736       -1.21558        9.15489
C          6.08096       -1.58364       10.48312
C          5.39810       -0.75627       11.35821
C          4.85004        0.43036       10.90654
C          4.72069        5.70768        9.99685
C          5.28896        6.76159        9.28686
C          5.71826        7.89793        9.94613
C          5.58605        7.99935       11.32111
C          5.02941        6.95271       12.03631
C          4.60385        5.81257       11.37968
C          2.94350        5.82230        7.64042
C          2.27295        6.74348        8.44059
C          1.80809        7.92810        7.89944
C          2.00978        8.20800        6.55809
C          2.67922        7.29854        5.75602
C          3.13863        6.10761        6.28873
C         -1.24974        0.84349        3.01689
C         -0.15505        0.22548        3.61310
C         -0.34638       -0.87338        4.43344
C         -1.62227       -1.35042        4.67649
C         -2.71557       -0.72908        4.09659
C         -2.53087        0.35990        3.26727
C         -2.04368        0.65211        0.22441
C         -3.24059        0.71209       -0.48301
C         -3.81434       -0.43853       -0.99187
C         -3.19470       -1.66305       -0.80936
C         -1.99527       -1.72956       -0.12039
C         -1.42251       -0.58147        0.39372
C         -0.49869        5.27662       -0.56493
C         -1.04625        6.53411       -0.33361
C         -0.84012        7.56302       -1.23365
C         -0.08572        7.35103       -2.37522
C          0.45339        6.09932       -2.61903
C          0.24415        5.06747       -1.72274
C          0.21319        5.55776        2.21342
C          1.44665        6.01219        1.75708
C          1.89178        7.27516        2.09942
C          1.11219        8.09743        2.89698
C         -0.10224        7.64081        3.37896
C         -0.55061        6.37518        3.04112
H          5.37141        3.20433       10.61693
H         -1.53364        2.89146       -1.12638
H          0.36848        5.42894        7.02255
H         -0.07952        5.94165        5.40720
H         -3.87003        3.44776        5.50091
H         -2.36828        2.57011        5.26543
H         -2.74984        3.95513        4.25343
H         -2.96770        6.82563        5.60258
H         -2.41139        7.07591        7.24391
H         -3.90748        6.21752        6.94702
H         -2.97041        3.54225        8.52003
H         -1.70902        4.64371        9.03541
H         -1.28632        3.08598        8.34087
H          2.45905       -0.18034        8.92203
H          2.07500       -2.26173        7.66896
H          2.62351       -2.38066        5.26525
H          3.46472       -0.37143        4.09654
H          3.89834        1.69633        5.35410
H          5.78282        0.25547        7.66594
H          6.75698       -1.85292        8.46980
H          6.50841       -2.51064       10.83578
H          5.29154       -1.03669       12.39615
H          4.30814        1.07080       11.58793
H          5.40445        6.68178        8.21629
H          6.15953        8.70819        9.38444
H          5.91885        8.88968       11.83388
H          4.92621        7.02503       13.10935
H          4.15963        5.00058       11.93765
H          2.11265        6.52279        9.48602
H          1.28758        8.63547        8.52847
H          1.64920        9.13578        6.13928
H          2.84983        7.51345        4.71239
H          3.68564        5.41121        5.66301
H          0.85010        0.59056        3.41064
H          0.50458       -1.35065        4.89372
H         -1.76360       -2.20469        5.32176
H         -3.71353       -1.09491        4.28899
H         -3.37901        0.84732        2.80830
H         -3.72948        1.66662       -0.61755
H         -4.74836       -0.37974       -1.53173
H         -3.64334       -2.56203       -1.20559
H         -1.50293       -2.68111        0.01711
H         -0.48166       -0.63735        0.91991
H         -1.64457        6.70231        0.54910
H         -1.27090        8.53512       -1.04295
H          0.07869        8.15761       -3.07439
H          1.03954        5.92677       -3.50997
H          0.67183        4.09242       -1.90757
H          2.04520        5.37613        1.12187
H          2.84533        7.62447        1.73075
H          1.44950        9.09464        3.14024
H         -0.70998        8.27581        4.00778
H         -1.51756        6.03009        3.38398
