112
CSD_code = QUGZOH | q = 0 | S = 0 | Stoichiometry = C51H52O5OsP2Si | MND = 6
Os         4.76951       18.44314        3.04959
Si         3.85079       18.43731        5.29817
P          3.74334       20.60998        2.84215
P          5.89425       16.41544        3.54359
O          2.30375       17.01065        1.94774
O          5.45956       18.85996        0.12548
O          4.66065       18.17409        6.73971
O          2.51764       17.43141        5.32010
O          3.34711       20.03992        5.47950
C          3.19110       17.55727        2.44323
C          5.30979       18.66608        1.25419
C          4.31734       17.28491        7.76356
H          3.95225       16.34541        7.33322
H          3.50536       17.72180        8.36352
C          5.51882       17.02668        8.66247
H          5.22066       16.40544        9.50342
H          5.90715       17.97122        9.03510
H          6.30564       16.52273        8.10930
C          1.35909       17.43124        6.11427
H          0.95607       18.45012        6.17003
H          1.60216       17.10388        7.13281
C          0.32384       16.49707        5.50269
H         -0.59258       16.52277        6.08750
H          0.70950       15.48168        5.48553
H          0.10615       16.79956        4.48143
C          3.19780       20.73636        6.69297
H          3.88196       21.59454        6.66738
H          3.49981       20.09283        7.52413
C          1.76953       21.22376        6.90683
H          1.72474       21.84196        7.80046
H          1.09053       20.38330        7.02846
H          1.43261       21.80741        6.05304
C          6.64252       19.39611        3.71058
C          7.89935       19.29740        3.07410
C          9.02931       19.90981        3.60842
H          9.97307       19.80857        3.08699
C          8.98243       20.63387        4.78169
H          9.87627       21.09306        5.18079
C          7.76896       20.75111        5.42774
H          7.68953       21.31105        6.34995
C          6.64283       20.15125        4.89244
H          5.72429       20.28580        5.44097
C          8.12451       18.55460        1.78186
H          9.16108       18.22759        1.71237
H          7.92610       19.20442        0.92800
H          7.48548       17.67308        1.69746
C          4.61956       22.06477        3.49207
C          4.08334       22.94625        4.42002
H          3.07658       22.80356        4.77958
C          4.83950       24.01052        4.88234
H          4.41656       24.69073        5.60819
C          6.13067       24.20367        4.42228
H          6.71734       25.03286        4.78991
C          6.66956       23.33084        3.49048
H          7.67742       23.47414        3.13016
C          5.92147       22.26366        3.03251
H          6.34310       21.56824        2.31856
C          1.97102       20.94073        3.15840
C          1.10406       19.94043        3.57213
H          1.49310       18.95577        3.77288
C         -0.24296       20.21106        3.74345
H         -0.91115       19.42803        4.07248
C         -0.73520       21.48066        3.49484
H         -1.78484       21.69371        3.63568
C          0.12122       22.47641        3.05193
H         -0.26119       23.46454        2.83981
C          1.46498       22.20701        2.87202
H          2.12618       22.97983        2.50298
C          3.59067       21.07811        1.05871
C          4.15418       22.19672        0.46055
H          4.77281       22.87177        1.03359
C          3.92914       22.46017       -0.88105
H          4.37955       23.33201       -1.33349
C          3.13526       21.61897       -1.63861
H          2.96616       21.82731       -2.68472
C          2.55452       20.50864       -1.04652
H          1.92755       19.84866       -1.62810
C          2.77936       20.24535        0.28936
H          2.32185       19.38042        0.75251
C          7.55147       16.54702        4.29510
C          7.62779       17.21531        5.51696
H          6.72316       17.59726        5.96771
C          8.85168       17.40741        6.12738
H          8.90408       17.93110        7.07034
C         10.01009       16.94476        5.52290
H         10.96841       17.10443        5.99503
C          9.93810       16.28679        4.30801
H         10.84004       15.93108        3.83075
C          8.71473       16.08935        3.68986
H          8.67391       15.58827        2.73323
C          5.06649       15.25568        4.70155
C          3.79187       14.82287        4.34752
H          3.32936       15.21382        3.45350
C          3.12352       13.89764        5.12436
H          2.13958       13.55895        4.83327
C          3.71701       13.39681        6.27236
H          3.19198       12.67997        6.88681
C          4.98894       13.81274        6.62341
H          5.46111       13.41931        7.51223
C          5.66739       14.73018        5.83795
H          6.66658       15.03249        6.11560
C          6.13066       15.16277        2.22151
C          5.66799       15.37631        0.93076
H          5.18730       16.31401        0.68602
C          5.81153       14.39598       -0.03675
H          5.45020       14.57451       -1.03870
C          6.41311       13.19117        0.28134
H          6.52619       12.42615       -0.47247
C          6.86298       12.96366        1.57316
H          7.32379       12.02011        1.82690
C          6.71831       13.93923        2.54022
H          7.05814       13.75654        3.55064
