49
CSD_code = QUMQOE | q = 0 | S = 0 | Stoichiometry = C21H23Cl2PRuSi | MND = 9
Ru         1.16847        9.08127        0.74561
Cl         2.12743        7.51351        2.22925
Cl         2.39657        8.18762       -1.04541
P          2.85718       10.24580        1.71700
Si         0.43429       11.40207        3.21224
C          2.24225       10.77091        3.36115
C          0.37634       13.26293        2.80315
C         -0.52603       11.00297        4.80570
C         -0.27266       10.40763        1.75662
C         -0.11366       10.88062        0.42021
C         -0.34266       10.03210       -0.67085
C         -0.81626        8.70799       -0.45794
C         -1.01755        8.24227        0.83722
C         -0.69596        9.07728        1.94057
C          3.25647       11.77550        0.81096
C          3.25260       11.67675       -0.57850
C          3.57543       12.77398       -1.35535
C          3.90488       13.97701       -0.75119
C          3.92361       14.07513        0.63043
C          3.60671       12.97831        1.41296
C          4.52986        9.59486        2.00988
C          5.03901        8.66926        1.10398
C          6.32165        8.17894        1.26587
C          7.10394        8.61188        2.32382
C          6.60243        9.54155        3.21939
C          5.32067       10.03799        3.06485
H          2.91439       11.49824        3.81317
H          2.27111        9.85769        3.96319
H          1.00871       13.52711        1.96035
H          0.71275       13.84003        3.65797
H         -0.63680       13.58180        2.57809
H         -1.58851       11.18371        4.68094
H         -0.18175       11.63732        5.61476
H         -0.39576        9.97256        5.12119
H          0.15577       11.91700        0.24452
H         -0.23346       10.40336       -1.68403
H         -1.04750        8.08060       -1.31164
H         -1.41407        7.24879        1.01032
H         -0.85189        8.69818        2.94452
H          2.99634       10.72677       -1.03483
H          3.57050       12.69180       -2.43203
H          4.15251       14.83731       -1.35541
H          4.18869       15.01051        1.10203
H          3.63346       13.06761        2.48881
H          4.41497        8.32563        0.28950
H          6.70830        7.45271        0.56692
H          8.10364        8.22391        2.45395
H          7.21081        9.88029        4.04577
H          4.94389       10.76022        3.77381
