75
CSD_code = RACHIN | q = 0 | S = 0 | Stoichiometry = C26H40N2O5OsSi | MND = 6
Os        -0.05225        2.03532        8.10406
Si        -3.29962        5.01647        8.53668
O          0.80144        1.40263        9.32317
O          0.46027        3.90444        8.34360
O         -1.58043        2.53881        9.19862
O         -0.75740        2.21400        6.65737
O         -2.99307        2.54726       11.85292
H         -2.26104        2.08816       11.42647
N          1.82716        1.25948        6.70582
N         -0.51257       -0.41003        7.68342
C          2.03391        2.21886        5.62470
H          2.81669        1.87961        4.93292
H          2.31833        3.17797        6.05209
H          1.10148        2.35717        5.07996
C          3.04374        1.15982        7.50354
H          3.87473        0.75315        6.91070
H          2.87277        0.52714        8.37095
H          3.30914        2.14980        7.86749
C          1.43434       -0.04405        6.16042
H          0.73890        0.13377        5.33837
H          2.31582       -0.56805        5.75618
C         -0.88016       -1.04568        8.94482
H         -0.96779       -2.13532        8.83534
H         -1.83140       -0.64059        9.28333
H         -0.12788       -0.81491        9.69704
C         -1.58136       -0.60040        6.71083
H         -1.69094       -1.66066        6.44192
H         -1.38062       -0.01833        5.81443
H         -2.51427       -0.23983        7.13808
C          0.76130       -0.94735        7.19693
H          1.42475       -1.05904        8.05598
H          0.60922       -1.94382        6.74942
C         -1.57189        5.10685        7.74649
H         -1.47925        4.39098        6.92706
H         -1.28301        6.08135        7.35888
C         -0.60335        4.65728        8.85495
H         -0.16211        5.53054        9.35830
C         -1.35589        3.76438        9.84703
H         -0.71162        3.59047       10.73035
C         -2.71102        4.36292       10.23198
H         -2.52261        5.14717       10.96713
C         -3.63480        3.29899       10.84276
H         -3.92345        2.61526       10.02971
C         -4.91898        3.92067       11.41722
H         -5.27223        4.66091       10.69011
C         -4.66316        4.60889       12.75500
H         -3.94414        5.41683       12.65175
H         -4.26802        3.88720       13.46394
H         -5.58956        5.02281       13.14687
C         -5.98660        2.84090       11.57792
H         -6.89484        3.26149       12.00367
H         -5.61934        2.05991       12.23868
H         -6.22817        2.39949       10.61322
C         -4.14705        6.71111        8.61265
C         -4.27511        7.45374        9.78150
H         -3.86486        7.06802       10.70232
C         -4.92387        8.67603        9.78811
H         -5.01316        9.23494       10.70878
C         -5.46057        9.18222        8.61712
H         -5.96925       10.13545        8.61942
C         -5.34271        8.45803        7.44219
H         -5.76067        8.84641        6.52436
C         -4.69316        7.23779        7.44556
H         -4.60845        6.67262        6.52920
C         -4.49064        3.81017        7.68324
C         -5.86467        4.04332        7.69114
H         -6.24472        4.93766        8.16315
C         -6.74479        3.15426        7.10173
H         -7.80699        3.35237        7.12163
C         -6.26439        2.01106        6.48543
H         -6.94949        1.31541        6.02176
C         -4.90155        1.76489        6.46587
H         -4.52375        0.87599        5.97926
C         -4.02361        2.65375        7.06081
H         -2.96230        2.44656        7.05160
