54
CSD_code = RAMTUU | q = 0 | S = 0 | Stoichiometry = C20H30Cl2HfSi | MND = 12
Hf        13.32086        2.76552        8.06889
Cl        11.86364        1.15209        7.25959
Si        13.32079        6.02425        8.06905
C         12.69523        4.71418        9.29747
C         13.53258        4.00396       10.21783
C         12.86491        2.82766       10.63401
C         11.63010        2.75346        9.94694
C         11.52850        3.89074        9.09749
C         14.79809        4.48301       10.86863
C         13.32991        1.90467       11.71946
C         10.54450        1.74987       10.19960
C         10.26624        4.22008        8.35034
C         14.61803        7.27467        8.71368
H         15.62686        3.80053       10.67330
H         15.06522        5.47709       10.52971
H         14.65887        4.52344       11.95011
H         13.00346        2.27407       12.69405
H         12.92090        0.90581       11.58306
H         14.41513        1.82971       11.72814
H          9.91980        2.07551       11.03417
H          9.90902        1.62763        9.32539
H         10.96469        0.77794       10.45289
H          9.46146        4.43336        9.05712
H         10.38997        5.08721        7.71308
H          9.94982        3.37403        7.73688
H         15.60822        6.88481        8.90935
H         14.72944        8.06541        7.97901
H         14.25699        7.73420        9.62844
Cl        14.77652        1.15231        8.88081
C         13.94638        4.71426        6.84058
C         13.10905        4.00405        5.92017
C         15.11314        3.89084        7.04049
C         13.77683        2.82787        5.50383
C         11.84343        4.48299        5.26953
H         11.01475        3.80038        5.46484
H         11.57619        5.47700        5.60858
H         11.98258        4.52355        4.18806
C         15.01162        2.75366        6.19090
C         16.37530        4.22007        7.78784
H         17.18005        4.43381        7.08116
H         16.25140        5.08688        8.42549
H         16.69186        3.37379        8.40092
C         16.09713        1.74994        5.93843
H         16.72211        2.07564        5.10409
H         16.73231        1.62745        6.81282
H         15.67685        0.77811        5.68488
C         13.31172        1.90474        4.41856
H         13.63819        2.27397        3.44393
H         13.72061        0.90586        4.55513
H         12.22649        1.82986        4.40994
C         12.02355        7.27469        7.42446
H         11.03338        6.88482        7.22866
H         11.91206        8.06538        8.15918
H         12.38466        7.73430        6.50977
