113
CSD_code = REJMAW | q = 0 | S = 0 | Stoichiometry = C35H65BN9Si2Y | MND = 6
Y         14.07388        5.75755        9.10263
Si        12.82977        8.61114       11.00260
Si        11.50514        8.08338        8.44677
N         15.83924        3.84414        9.39989
N         16.80271        4.19177       10.28328
N         15.98276        6.96980        9.77519
N         16.62190        6.59729       10.90654
N         14.00388        5.03923       11.35411
N         15.15136        4.84997       12.04109
N         12.87768        4.26770        7.75740
N         14.56306        5.39349        6.83163
N         12.72948        7.62980        9.57961
B         16.54485        5.15249       11.45161
H         17.36395        5.00408       12.28646
C         15.61586        2.19811        7.53652
H         14.56877        2.47328        7.57022
H         15.71599        1.12027        7.66173
H         16.02293        2.46299        6.56117
C         16.36139        2.90152        8.61490
C         17.68888        2.65615        8.98088
H         18.36823        1.96031        8.53117
C         17.93328        3.49877       10.04578
C         19.19567        3.66799       10.81323
H         19.51593        4.70799       10.79579
H         19.97304        3.05145       10.36983
H         19.06308        3.37044       11.85204
C         15.80114        8.97509        8.33822
H         16.48229        8.87683        7.49120
H         15.70984       10.03216        8.57455
H         14.81826        8.58195        8.06658
C         16.32447        8.23417        9.51842
C         17.20923        8.68363       10.49946
H         17.66328        9.65103       10.57425
C         17.37041        7.61717       11.36620
C         18.18162        7.56736       12.61101
H         17.54716        7.34669       13.46748
H         18.66164        8.52944       12.76830
H         18.94798        6.79694       12.54939
C         11.56848        4.94559       11.78243
H         11.52040        5.39113       10.78594
H         11.09128        5.62519       12.48823
H         11.02016        4.00346       11.80525
C         12.99208        4.74775       12.17165
C         13.49686        4.33132       13.40488
H         12.94015        4.02474       14.26726
C         14.87216        4.41273       13.28321
C         15.89220        4.08435       14.31400
H         16.57159        3.31517       13.95224
H         15.39499        3.72263       15.21005
H         16.48001        4.96354       14.57056
C         11.83405        3.25747        7.79081
H         11.90678        2.57003        6.93460
C         10.44178        3.90553        7.78079
H         10.29967        4.44945        6.84403
H         10.39676        4.63385        8.59272
C          9.33642        2.86776        7.94520
H          8.36452        3.36574        7.95012
H          9.35326        2.17766        7.09736
C          9.52731        2.08128        9.23696
H          9.46016        2.76306       10.08745
H          8.73681        1.33456        9.34140
C         10.89162        1.40022        9.23407
H         10.93115        0.68181        8.41102
H         11.03634        0.84627       10.16444
C         12.01088        2.42445        9.06923
H         12.02936        3.10487        9.92238
H         12.97557        1.91306        9.03816
C         13.56464        4.54221        6.65487
C         13.22136        3.93552        5.31083
H         13.57785        4.56693        4.50333
H         12.14337        3.84075        5.20870
H         13.66866        2.94732        5.20592
C         15.55681        5.63133        5.79990
H         15.61448        4.77939        5.10441
C         16.93116        5.76625        6.46985
H         16.88628        6.57648        7.20102
H         17.15599        4.84498        7.01081
C         18.02530        6.04257        5.44244
H         18.10685        5.19182        4.76091
H         18.98611        6.15426        5.94983
C         17.71109        7.29907        4.63707
H         17.69529        8.16423        5.30379
H         18.48946        7.46817        3.88951
C         16.35430        7.16068        3.95480
H         16.39159        6.33084        3.24428
H         16.12381        8.06898        3.39344
C         15.25968        6.90050        4.98530
H         15.19217        7.74765        5.67038
H         14.29392        6.79998        4.48489
C         13.81514        7.92531       12.49488
H         13.27022        7.16529       13.04174
H         14.00877        8.74112       13.18528
H         14.77412        7.51319       12.21211
C         11.11369        8.99957       11.76830
H         10.55889        9.69118       11.14539
H         11.21369        9.45049       12.75092
H         10.50765        8.10675       11.87593
C         13.66082       10.32430       10.71863
H         14.73419       10.27469       10.87308
H         13.26765       11.05631       11.41781
H         13.48341       10.70127        9.71914
C         11.87524        7.37474        6.71132
H         12.91847        7.50308        6.44224
H         11.27669        7.88274        5.96104
H         11.64396        6.31859        6.65253
C          9.73522        7.49533        8.93050
H          9.75577        6.64399        9.60296
H          9.15814        7.20986        8.05645
H          9.19254        8.28692        9.43508
C         11.30620        9.96215        8.11177
H         11.12064       10.50813        9.02872
H         10.46942       10.14741        7.44473
H         12.19069       10.38793        7.64789
