32
CSD_code = RERHOL | q = 0 | S = 0 | Stoichiometry = C10H17Cl2NSiTi | MND = 8
Ti         2.30061        9.07415        0.97979
Cl         1.82491        7.40674        2.27272
Si         1.48606        9.07418       -1.81111
N          0.87513        9.07422       -0.18000
C          3.24271        9.07426       -1.06769
C          3.72783        7.93578       -0.36684
C          4.53226        8.36870        0.70952
C          1.14497        7.49893       -2.84157
C         -0.48841        9.07432        0.30505
C         -1.22184        7.80911       -0.14838
H          3.59514        6.90499       -0.67730
H          5.12866        7.73310        1.35411
H          1.16274        6.60723       -2.22193
H          1.89232        7.38263       -3.61907
H          0.17669        7.54766       -3.32794
H         -0.45413        9.07432        1.41156
H         -1.32458        7.80930       -1.23086
H         -0.64808        6.93409        0.15564
H         -2.20893        7.76046        0.30394
Cl         1.82486       10.74128        2.27306
C          3.72769       10.21275       -0.36676
C          4.53217        9.77986        0.70957
H          3.59487       11.24355       -0.67717
H          5.12850       10.41549        1.35419
C          1.14492       10.64925       -2.84156
H          1.16113       11.54109       -2.22181
H          1.89309       10.76658       -3.61834
H          0.17714       10.59997       -3.32927
C         -1.22163       10.33966       -0.14838
H         -1.32433       10.33950       -1.23087
H         -0.64776       11.21459        0.15569
H         -2.20873       10.38844        0.30391
