138
CSD_code = RIJNOQ | q = 0 | S = 0 | Stoichiometry = C31H90O4Si12Zr | MND = 4
Zr         7.83339        5.74741        4.74227
Si        11.13780        5.34026        5.58750
Si        11.92708        3.61599        6.98593
Si        11.52604        5.06449        3.25015
Si        11.88015        7.47259        6.27362
Si         5.98705        3.76640        2.86530
Si         5.14887        4.16022        0.70544
Si         4.42034        3.19088        4.57186
Si         7.64651        2.06146        2.93795
Si         7.56905        9.11914        4.35100
Si         5.20723        8.80908        4.49030
Si         8.10778       10.86382        5.85186
Si         8.16395        9.37428        2.07663
O          9.54010        5.34223        5.58956
O          6.93493        5.02295        3.19186
O          8.16851        7.66749        4.67260
O          6.62015        5.14913        6.09190
C         11.05474        1.90251        7.06887
H         11.12307        1.37193        6.12371
H         10.00119        2.00763        7.31144
H         11.50097        1.26555        7.82922
C         11.97262        4.22709        8.80837
H         12.42061        3.49466        9.47435
H         10.97524        4.43986        9.18247
H         12.55331        5.14075        8.89445
C         13.74148        3.26347        6.49057
H         13.81328        2.84671        5.49132
H         14.21108        2.56145        7.17164
H         14.33130        4.17378        6.50475
C         12.00109        3.32789        2.56020
H         11.83022        3.25387        1.48969
H         11.46806        2.51047        3.03366
H         13.06067        3.15833        2.72543
C          9.81292        5.56749        2.52839
H          9.41710        6.39475        3.14161
H          9.11198        4.72862        2.58056
H          9.84091        5.90787        1.49412
C         12.80671        6.18804        2.35571
H         12.92968        5.88859        1.31900
H         13.77896        6.10170        2.82933
H         12.53823        7.23855        2.35866
C         11.06284        8.19166        7.85919
H         10.05031        8.52155        7.64648
H         11.61062        9.04361        8.25498
H         11.00809        7.44761        8.64899
C         11.62133        8.78954        4.90583
H         12.22581        8.56832        4.03286
H         11.89123        9.78862        5.23193
H         10.57897        8.80870        4.59777
C         13.76480        7.41406        6.61466
H         14.30992        7.04579        5.75176
H         14.00541        6.76666        7.45123
H         14.15300        8.40012        6.84679
C          4.30613        2.56872        0.06296
H          3.99904        2.67310       -0.97230
H          3.42115        2.32742        0.64020
H          4.97394        1.71542        0.12183
C          3.83192        5.55676        0.57647
H          3.01094        5.37685        1.26506
H          3.40800        5.62220       -0.42233
H          4.24918        6.52993        0.81749
C          6.51369        4.56992       -0.58672
H          6.10104        4.87828       -1.54408
H          7.14472        3.70441       -0.76611
H          7.15429        5.37040       -0.23238
C          3.30325        1.86533        3.74036
H          2.62090        2.31274        3.02551
H          2.69947        1.34014        4.47302
H          3.88852        1.12286        3.20838
C          3.13609        4.36327        5.40358
H          2.49854        4.84511        4.66668
H          3.61974        5.13823        5.98793
H          2.48252        3.80530        6.07168
C          5.26509        2.25250        6.02343
H          5.63871        1.28217        5.71178
H          4.58797        2.08385        6.85743
H          6.10712        2.83318        6.38502
C          7.14005        0.22695        3.18030
H          6.44570        0.08713        4.00064
H          8.00376       -0.40203        3.37097
H          6.65859       -0.15037        2.28488
C          8.65047        2.56879        4.50679
H          9.72785        2.59219        4.35963
H          8.45144        1.89592        5.33729
H          8.32775        3.58039        4.81471
C          8.86456        1.95360        1.44386
H          9.72169        1.31859        1.65301
H          9.23903        2.92393        1.13472
H          8.35080        1.52045        0.59020
C          4.89853        6.97335        4.07940
H          5.41434        6.34413        4.81532
H          5.30517        6.73853        3.09754
H          3.84880        6.69391        4.06842
C          4.19168        9.81912        3.21204
H          3.13044        9.60309        3.28646
H          4.49602        9.61039        2.19169
H          4.31425       10.88437        3.37580
C          4.29200        9.12201        6.16202
H          4.70896        8.54295        6.98192
H          3.23854        8.86346        6.08716
H          4.34385       10.16890        6.44568
C          6.95338       12.26891        5.24257
H          5.91095       11.96735        5.26054
H          7.18870       12.55227        4.22174
H          7.04481       13.16045        5.85478
C          7.64541       10.59338        7.70142
H          8.27655        9.84693        8.17404
H          6.61696       10.26149        7.80350
H          7.74728       11.51128        8.27489
C          9.84832       11.67315        5.89754
H         10.54434       11.10835        6.50876
H          9.79484       12.67791        6.30885
H         10.27136       11.75566        4.90096
C          7.36546        7.88834        1.14463
H          6.33468        8.10011        0.87412
H          7.35966        7.00204        1.78474
H          7.88879        7.63459        0.22598
C          7.48765       10.97922        1.28475
H          7.59883       10.96217        0.20572
H          8.02494       11.84759        1.65048
H          6.43690       11.13151        1.50360
C         10.03257        9.34542        1.61061
H         10.50960        8.42033        1.91854
H         10.56621       10.16177        2.08924
H         10.17962        9.45065        0.53779
C          6.85177        5.47570        7.43265
C          5.51884        5.47514        8.20411
H          5.68837        5.69114        9.25592
H          5.04325        4.50271        8.11058
H          4.85079        6.22717        7.78909
C          7.49180        6.87906        7.51840
H          7.67575        7.15542        8.55589
H          6.82431        7.61639        7.06446
H          8.44056        6.86918        6.96802
C          7.81832        4.45328        8.06857
H          7.34632        3.47414        8.12611
H          8.09653        4.76306        9.07346
H          8.71409        4.38357        7.44834
