56
CSD_code = RIKKIF | q = 0 | S = 0 | Stoichiometry = C22H30CrO2Si | MND = 10
Cr         1.47037       10.96764       11.38868
Si        -1.35232       11.31923       12.83953
O          3.50110       13.11228       11.72231
O          4.30185       10.14517       11.04002
C         -0.72416       11.06200       11.07647
C         -0.06212       12.10873       10.36245
C          0.74917       11.52342        9.35805
C          0.60462       10.10628        9.45939
C         -0.30966        9.83254       10.49907
C         -0.31689       13.57542       10.50677
H         -1.22726       13.85899        9.97418
H         -0.43188       13.85134       11.55075
H          0.50872       14.15137       10.09417
C          1.46119       12.24089        8.25210
H          0.79012       12.38938        7.40310
H          1.81620       13.21584        8.58020
H          2.32017       11.66682        7.91001
C          1.16380        9.10105        8.50338
H          0.50853        8.99907        7.63525
H          2.14768        9.40375        8.15134
H          1.25525        8.12612        8.97638
C         -0.90549        8.47942       10.74183
H         -1.48481        8.17799        9.86605
H         -0.13763        7.72235       10.90095
H         -1.57444        8.48867       11.59668
C         -2.14284        9.83859       13.76473
H         -3.02195        9.47237       13.24290
H         -1.46532        9.00568       13.91692
H         -2.46781       10.16825       14.74744
C         -2.72164       12.64881       12.90275
H         -2.39913       13.63308       12.58951
H         -3.54212       12.35418       12.25538
H         -3.12004       12.73153       13.90855
C          0.34951       11.66757       13.61870
C          0.78005       12.83101       14.37670
C          2.01002       12.62928       14.89617
C          2.49262       11.24849       14.54951
H          3.46090       11.27633       14.03916
C          1.38776       10.72559       13.65575
C         -0.05839       14.05684       14.53456
H          0.30192       14.67008       15.35614
H         -0.02980       14.66054       13.62760
H         -1.09177       13.78661       14.73381
C          2.86117       13.55447       15.69026
H          2.39587       14.52885       15.80596
H          3.05972       13.14400       16.68098
H          3.81934       13.68807       15.18841
C          2.62212       10.36195       15.79512
H          3.39095       10.74873       16.45893
H          1.67545       10.33463       16.33082
H          2.89124        9.34856       15.50879
C          1.44914        9.49657       12.96695
H          2.29502        8.86320       13.21392
H          0.53345        8.92673       12.87779
C          2.68824       12.29137       11.60207
C          3.18592       10.44202       11.17160
