127
CSD_code = RIKXIU | q = 0 | S = 0 | Stoichiometry = C48H68IN4OP2Si2Y | MND = 6
Y          3.98553        8.06627        4.72373
C          5.14304       10.59970        3.76185
P          3.96202       10.15139        2.52062
C          2.72185       11.49087        2.53809
C          1.74610       11.40047        3.52395
H          1.75662       10.55413        4.19805
C          0.77140       12.37313        3.64192
H          0.02373       12.29684        4.41830
C          0.75753       13.44475        2.76439
H         -0.00085       14.20884        2.85295
C          1.71716       13.53283        1.77002
H          1.70383       14.36304        1.07853
C          2.69723       12.56273        1.65530
H          3.43537       12.63956        0.86986
C          4.77664       10.32074        0.90612
C          4.62336        9.35778       -0.07999
H          4.04650        8.47107        0.13895
C          5.20859        9.53556       -1.32095
H          5.08301        8.78577       -2.08865
C          5.95139       10.67545       -1.57848
H          6.40192       10.81886       -2.54958
C          6.12664       11.62972       -0.58819
H          6.71825       12.51187       -0.78580
C          5.54397       11.45406        0.65209
H          5.69124       12.17963        1.44073
N          3.22851        8.72212        2.69089
Si         1.73243        8.32927        1.86851
C          1.91895        6.61455        1.03626
H          2.19846        5.84104        1.74407
H          2.64473        6.60474        0.22799
H          0.96182        6.33022        0.61214
C          0.32161        8.23752        3.16773
H          0.70473        8.21426        4.18792
H         -0.26525        7.33608        3.02659
H         -0.35264        9.08552        3.08727
C          1.20590        9.58287        0.52580
H          2.06281       10.04728        0.04765
H          0.59544       10.37813        0.94158
H          0.62268        9.08982       -0.24446
P          6.42857        9.39900        3.82208
C          7.46283        9.70518        2.35804
C          8.26088       10.84424        2.35042
H          8.24890       11.50331        3.20806
C          9.05892       11.12549        1.25850
H          9.68312       12.00727        1.25982
C          9.06055       10.27430        0.16457
H          9.68966       10.48961       -0.68651
C          8.25053        9.15120        0.15906
H          8.24258        8.49317       -0.69765
C          7.45005        8.86872        1.25153
H          6.80682        8.00166        1.25047
C          7.56856        9.82685        5.18228
C          8.83800        9.25610        5.12805
H          9.11062        8.67269        4.25910
C          9.73442        9.44143        6.16232
H         10.72007        9.00201        6.10869
C          9.36884       10.19664        7.26637
H         10.06990       10.34644        8.07429
C          8.10549       10.75872        7.33003
H          7.81851       11.34836        8.18891
C          7.20216       10.57021        6.29657
H          6.21866       11.00984        6.35031
N          6.06447        7.83041        4.01162
Si         6.71637        6.30443        3.49120
C          5.56413        5.70840        2.07152
H          4.74313        6.41063        1.92129
H          5.12780        4.74108        2.30377
H          6.09141        5.60472        1.12676
C          6.57950        5.07455        4.95377
H          5.66960        5.21376        5.52959
H          7.42445        5.15908        5.63080
H          6.57171        4.05767        4.57533
C          8.55193        6.24185        2.96244
H          8.74592        5.30049        2.46009
H          9.20894        6.28793        3.82489
H          8.83178        7.04116        2.28552
C          4.35418       10.95235        5.02690
N          3.77191        9.93065        5.69764
C          2.92311       10.34111        6.81883
H          2.43888       11.29285        6.54701
C          1.85472        9.27550        7.08948
H          2.34756        8.31915        7.31572
H          1.22843        9.14058        6.19748
C          0.96775        9.67417        8.26667
H          0.43718       10.59678        8.02004
H          0.22398        8.89467        8.44647
C          1.80746        9.89765        9.51970
H          2.29721        8.96121        9.79952
H          1.16380       10.19754       10.34948
C          2.86007       10.97098        9.26177
H          3.47114       11.11835       10.15579
H          2.36317       11.91702        9.03675
C          3.75134       10.58683        8.08613
H          4.31574        9.68068        8.32358
H          4.45858       11.39025        7.87647
N          4.20385       12.17088        5.40029
C          4.70401       13.28573        4.64504
H          4.65810       13.08550        3.55955
C          3.81219       14.49072        4.95369
H          3.84879       14.67858        6.02841
H          2.78156       14.24411        4.69155
C          4.27664       15.72216        4.18643
H          4.19137       15.52968        3.11341
H          3.63360       16.57278        4.42500
C          5.72611       16.05122        4.53054
H          5.79699       16.30046        5.59192
H          6.05985       16.92078        3.95863
C          6.62573       14.85578        4.23299
H          7.65897       15.08839        4.50460
H          6.60195       14.64476        3.16021
C          6.15797       13.62245        4.99735
H          6.79358       12.76767        4.75228
H          6.22943       13.79791        6.07334
O          4.96789        7.24799        7.06813
C          4.37785        6.57012        8.17946
H          3.46420        6.07748        7.84688
H          4.14243        7.29371        8.97315
C          5.45216        5.59416        8.65125
H          5.30669        5.29265        9.68531
H          5.44288        4.70601        8.02070
C          6.73850        6.40066        8.43895
H          7.09146        6.83515        9.37320
H          7.53528        5.78504        8.02826
C          6.31800        7.51082        7.45809
H          6.37123        8.49554        7.94081
H          6.92394        7.53358        6.55038
I          2.53430        5.65072        4.95640
