129
CSD_code = RILJED | q = 0 | S = 0 | Stoichiometry = C52H69N6ScSi | MND = 5
Sc         4.79447        3.59328        3.78240
Si         2.67657        1.26337        5.06586
H          3.93104        0.51606        5.27178
H          2.18511        1.62426        6.41894
N          6.21652        2.47884        4.96392
N          4.67081        4.90110        5.49475
N          5.39247        8.52220        5.93249
N          6.15618        3.84316        1.95928
N          4.36007        5.19836        2.26994
N          3.00111        2.54707        3.98404
C          6.43641        1.05491        6.96899
H          6.90079        0.34355        6.29126
H          5.64913        0.55588        7.52923
H          7.19322        1.39268        7.67653
C          5.85204        2.23358        6.21842
C          5.00132        3.04511        6.96917
H          4.77145        2.66974        7.95550
C          4.55089        4.34368        6.68824
C          3.96813        5.09198        7.86892
H          4.54316        5.99077        8.08440
H          3.97178        4.46126        8.75267
H          2.93925        5.38508        7.66637
C          4.38871        6.32962        5.37693
H          3.66200        6.67695        6.11658
H          3.98139        6.52287        4.38055
C          5.67810        7.14645        5.56735
H          6.24723        6.69676        6.38688
H          6.29415        7.07804        4.65096
C          4.78376        9.26365        4.84603
H          5.43218        9.31833        3.95830
H          4.57351       10.27649        5.18605
H          3.84528        8.79650        4.55743
C          6.58412        9.19557        6.40805
H          7.37140        9.26300        5.64084
H          6.98262        8.65954        7.26853
H          6.31955       10.20405        6.72193
C          7.42662        1.87135        4.53182
C          8.64026        2.38313        5.03768
C          9.83456        1.80513        4.63678
H         10.77046        2.19249        5.00684
C          9.84955        0.72949        3.76759
H         10.78787        0.27871        3.48045
C          8.66150        0.24128        3.26422
H          8.68338       -0.59518        2.58319
C          7.44231        0.80097        3.62479
C          6.16311        0.22433        3.06126
H          5.33388        0.91361        3.30744
C          6.22520        0.07807        1.53934
H          6.47436        1.02735        1.07237
H          5.26072       -0.25596        1.16581
H          6.97086       -0.65586        1.24308
C          5.86656       -1.13783        3.69637
H          6.68068       -1.83344        3.50088
H          4.94940       -1.54967        3.28133
H          5.74224       -1.04682        4.77276
C          8.63697        3.60660        5.93178
H          7.72704        3.59884        6.53814
C          9.82841        3.67099        6.88736
H          9.95534        2.72584        7.41071
H          9.66186        4.45230        7.62639
H         10.74976        3.90524        6.35971
C          8.58871        4.86083        5.05096
H          9.45378        4.89624        4.39055
H          8.59125        5.75612        5.66965
H          7.67692        4.85530        4.44536
C          5.41892        4.85982        1.56772
H          5.68826        5.42224        0.66203
C          3.71170        6.39304        1.93613
C          4.42227        7.55240        1.61223
H          5.50387        7.53333        1.61248
C          3.75261        8.72667        1.32403
H          4.31650        9.61569        1.07965
C          2.36926        8.77130        1.35481
H          1.85103        9.69211        1.13352
C          1.65744        7.62569        1.67399
H          0.57774        7.64729        1.69627
C          2.31710        6.44728        1.96115
H          1.76782        5.55000        2.19779
C          7.18751        3.44758        1.09244
C          8.45524        3.16672        1.60024
H          8.63153        3.28049        2.65630
C          9.47213        2.75269        0.76310
H         10.44545        2.53753        1.17926
C          9.25237        2.61694       -0.59769
H         10.04795        2.28909       -1.24982
C          8.00168        2.90758       -1.11521
H          7.81781        2.80743       -2.17544
C          6.97831        3.32227       -0.28387
H          6.00091        3.52745       -0.69629
C          1.90768        3.03816        3.24992
C          0.88897        3.81632        3.84703
C         -0.24581        4.14255        3.11818
H         -1.03386        4.71163        3.58974
C         -0.39941        3.74480        1.80409
H         -1.29886        3.98966        1.25894
C          0.62036        3.03941        1.19447
H          0.50754        2.74082        0.16294
C          1.76801        2.68941        1.88729
C          2.84721        1.90399        1.17632
H          3.75299        1.91407        1.81322
C          2.39792        0.45460        0.97452
H          2.25519       -0.03804        1.93272
H          3.13595       -0.10054        0.39799
H          1.45310        0.42542        0.43511
C          3.21811        2.53642       -0.16725
H          2.40721        2.44336       -0.88588
H          4.09227        2.03646       -0.58093
H          3.44297        3.59391       -0.03716
C          1.01173        4.32816        5.26407
H          2.01111        4.06238        5.62773
C         -0.03702        3.69382        6.18158
H          0.09579        4.04278        7.20428
H          0.04670        2.61050        6.17435
H         -1.04061        3.96212        5.85747
C          0.86936        5.85409        5.30016
H          1.56740        6.32170        4.61006
H          1.06263        6.22939        6.30386
H         -0.13761        6.15735        5.02319
C          1.42176        0.01345        4.39168
C          0.15790        0.39344        3.95278
H         -0.13013        1.43238        3.99777
C         -0.73767       -0.53103        3.44516
H         -1.71123       -0.20594        3.10563
C         -0.38926       -1.86860        3.37213
H         -1.08629       -2.59330        2.97575
C          0.85967       -2.27106        3.81392
H          1.14020       -3.31432        3.76504
C          1.74858       -1.33733        4.31502
H          2.72192       -1.65951        4.65734
