148
CSD_code = RILVUG | q = 1 | S = 0 | Stoichiometry = C64H76MoN3O3Si(1+) | MND = 6
Mo         6.55495       12.26686        7.79468
N          7.05788       11.13693        6.57231
C          7.40739       10.08714        5.70316
C          8.73137        9.46710        6.19022
H          9.53017       10.20166        6.13015
H          8.98988        8.60893        5.57561
H          8.62206        9.14444        7.22381
C          6.31280        9.00153        5.75242
H          6.25883        8.56746        6.74882
H          6.54499        8.21677        5.03771
H          5.34432        9.42871        5.50098
C          7.57162       10.56973        4.24978
H          6.60145       10.74177        3.79345
H          8.09683        9.81671        3.66846
H          8.13853       11.49586        4.22616
O          7.91740       13.49103        8.02784
Si         9.05311       14.64753        8.10240
C          8.19177       16.29523        8.50148
C          8.82022       17.30762        9.22076
H          9.83760       17.16444        9.55451
C          8.15972       18.48740        9.51622
H          8.66372       19.26107       10.07638
C          6.85306       18.67906        9.09681
H          6.33742       19.59821        9.33191
C          6.21485       17.68836        8.36889
H          5.19828       17.82749        8.02670
C          6.88587       16.51527        8.07478
H          6.39462       15.74570        7.49569
C         10.36442       14.32105        9.44035
C         10.11849       14.60299       10.78154
H          9.14334       14.96133       11.07719
C         11.10014       14.43413       11.74216
H         10.88709       14.66106       12.77694
C         12.35649       13.97982       11.37706
H         13.12579       13.85102       12.12393
C         12.62168       13.69809       10.04724
H         13.60092       13.34839        9.75431
C         11.63571       13.87114        9.09159
H         11.85477       13.66063        8.05460
C          9.88965       14.68613        6.39994
C          9.81261       13.56371        5.57861
H          9.24418       12.70956        5.93084
C         10.43902       13.53897        4.34571
H         10.37717       12.65977        3.72018
C         11.15628       14.64292        3.91367
H         11.64916       14.62623        2.95301
C         11.24149       15.76712        4.71818
H         11.80107       16.62832        4.38390
C         10.61422       15.78578        5.95125
H         10.68488       16.66269        6.57806
O          5.58450       13.35529        6.74398
C          4.67576       14.29516        6.62797
C          4.39529       14.95866        5.40859
C          3.31117       15.81489        5.37995
H          3.07024       16.30069        4.45064
C          2.50071       16.09625        6.48829
C          2.87508       15.55985        7.69945
H          2.34782       15.80259        8.60752
C          3.96480       14.68269        7.79351
C          5.29236       14.74246        4.19650
C          4.90117       15.62664        3.00868
H          5.60346       15.45851        2.19592
H          4.94356       16.68096        3.27051
H          3.90677       15.38368        2.64161
C          6.74009       15.08114        4.58673
H          7.10211       14.42967        5.38474
H          6.81478       16.11551        4.91710
H          7.39551       14.95114        3.72869
C          5.21207       13.27623        3.75733
H          4.18421       13.00458        3.52367
H          5.59119       12.63026        4.54693
H          5.81860       13.12677        2.86720
C          1.29571       17.00503        6.31592
C          0.48030       17.13682        7.60479
H          0.14074       16.16402        7.95335
H         -0.39630       17.75142        7.41585
H          1.05791       17.61797        8.39032
C          1.77568       18.40192        5.89806
H          2.43984       18.81593        6.65362
H          0.92437       19.06866        5.78778
H          2.30951       18.37426        4.95239
C          0.38190       16.42017        5.22984
H          0.87931       16.37670        4.26551
H         -0.50606       17.03772        5.12198
H          0.07088       15.41381        5.50123
C          4.43385       14.29956        9.08630
H          3.95161       14.81263        9.92545
N          5.39941       13.48579        9.34139
C          5.81430       13.41451       10.68827
C          6.40867       14.52615       11.28007
H          6.55491       15.42163       10.69146
C          6.82368       14.46574       12.59821
H          7.28856       15.32897       13.04965
C          6.63011       13.31238       13.33949
H          6.94902       13.27073       14.36902
C          6.01591       12.21531       12.75827
H          5.84461       11.31953       13.33605
C          5.60649       12.26075       11.43780
H          5.10535       11.40883       10.99690
O          7.17201       11.28339        9.19086
C          7.15686       10.04450        9.60318
C          8.23681        9.42699       10.27898
C          8.09855        8.10227       10.65123
H          8.92763        7.62697       11.14205
C          6.94002        7.34253       10.43638
C          5.87814        7.96411        9.82009
H          4.95489        7.43457        9.63991
C          5.96622        9.29567        9.37751
C          9.50372       10.22246       10.57095
C         10.55879        9.40152       11.31916
H         10.18852        9.06567       12.28467
H         11.42969       10.02804       11.49598
H         10.88184        8.54234       10.73651
C         10.12965       10.71006        9.25713
H         10.44698        9.86161        8.65474
H         11.00179       11.32111        9.47693
H          9.42819       11.31704        8.67935
C          9.13333       11.42809       11.44421
H          8.49861       12.12456       10.89909
H         10.03372       11.95893       11.74147
H          8.61001       11.10250       12.34116
C          6.82410        5.88713       10.86418
C          8.10654        5.35334       11.50676
H          7.96313        4.31024       11.77785
H          8.35199        5.90011       12.41392
H          8.94429        5.40463       10.81557
C          5.68498        5.75898       11.88535
H          4.73183        6.05948       11.45946
H          5.88480        6.38223       12.75414
H          5.59778        4.72730       12.21607
C          6.51549        5.03043        9.62809
H          5.57073        5.31162        9.17178
H          6.45579        3.98224        9.90930
H          7.30196        5.14272        8.88520
C          4.82800        9.90239        8.77562
H          3.88944        9.34432        8.85859
N          4.80313       11.03804        8.14836
C          3.52999       11.51834        7.76029
C          3.23573       11.71984        6.41497
H          3.96929       11.44531        5.66997
C          2.01282       12.25120        6.04835
H          1.78873       12.40580        5.00429
C          1.07384       12.57834        7.01345
H          0.12218       12.99510        6.72364
C          1.35108       12.34990        8.34998
H          0.61688       12.58476        9.10532
C          2.56992       11.81348        8.72645
H          2.78972       11.64038        9.77139
