55
CSD_code = RITYIC | q = 0 | S = 0 | Stoichiometry = C19H28MoNO2PSeSi2 | MND = 9
Mo         8.62314        4.02149        0.01004
C          7.67296        4.50603       -1.58922
O          7.10592        4.73313       -2.56989
C          8.17478        2.47311       -1.04550
O          7.83477        1.57586       -1.68202
C          7.83161        3.19921        2.04067
C          9.09372        3.76403        2.28646
C          9.03514        5.14334        1.98072
C          7.72020        5.43920        1.56364
C          6.97000        4.22692        1.58100
Se        11.23696        3.15516       -0.39407
P         10.45957        5.03604       -1.11994
C         10.75642        5.00102       -2.91418
C         11.52065        5.96623       -3.55566
C         11.71948        5.89196       -4.92299
C         11.15864        4.85699       -5.65214
C         10.40418        3.88587       -5.01114
C         10.20273        3.95511       -3.64626
N         11.27843        6.39269       -0.56140
Si        10.38001        7.91854       -0.70240
C          8.69990        7.60290       -1.52693
C         11.29670        9.16372       -1.82132
C         10.13902        8.62243        1.05823
Si        12.92679        6.22254        0.08282
C         13.99400        5.23352       -1.14716
C         12.84673        5.47434        1.83832
C         13.74331        7.93103        0.27894
H          7.53388        2.18593        2.27735
H          9.93602        3.25076        2.73482
H          9.81039        5.86598        2.19990
H          7.29850        6.42798        1.42834
H          5.89213        4.15245        1.48532
H         11.95933        6.76524       -2.97828
H         12.31525        6.64397       -5.42001
H         11.31264        4.80264       -6.71957
H          9.97261        3.07345       -5.57605
H          9.62434        3.19131       -3.13715
H          8.20369        8.54085       -1.75737
H          8.03163        7.02178       -0.89797
H          8.82043        7.05907       -2.46109
H         12.37467        9.09435       -1.75294
H         11.01640       10.17135       -1.53485
H         11.01863        9.03806       -2.86330
H         10.03778        9.70174        1.01138
H         10.97762        8.39880        1.71002
H          9.24006        8.23769        1.53081
H         13.47552        4.35133       -1.51429
H         14.90884        4.89666       -0.66995
H         14.27407        5.83303       -2.00955
H         13.85067        5.27795        2.20228
H         12.30766        4.53151        1.85586
H         12.37251        6.15091        2.54571
H         14.55443        7.83733        0.99161
H         13.07046        8.69639        0.64298
H         14.17870        8.28068       -0.64956
