36
CSD_code = ROCWEL | q = 0 | S = 0 | Stoichiometry = C13H18Cl2OSiTi | MND = 12
Ti         9.24075        0.01639        7.53857
Cl         9.50861        0.48468        9.71182
Cl        14.51969        1.70559        9.03346
Si        12.48526       -0.19657        7.76704
O         10.95568       -0.18276        7.26181
C          8.78604        1.25448        5.54729
H          8.84301        0.88593        4.53095
C          7.61910        1.30810        6.34617
H          6.63136        0.99296        6.03866
C          7.93486        1.98369        7.53440
H          7.24125        2.26374        8.31921
C          9.28858        2.40613        7.44601
H          9.79676        3.03743        8.16344
C          9.79889        1.97710        6.21125
H         10.78169        2.19578        5.81554
C          9.21357       -2.19133        6.68216
H          9.95491       -2.57836        5.99398
C          9.25955       -2.29354        8.08867
H         10.03960       -2.76993        8.66689
C          8.04488       -1.78462        8.60248
H          7.73810       -1.81365        9.64049
C          7.25897       -1.35453        7.52116
H          6.22975       -1.02550        7.58745
C          7.98013       -1.60583        6.33168
H          7.59592       -1.50763        5.32510
C         12.81982        1.54826        8.53296
H         12.63288        2.36000        7.83138
H         12.21644        1.71525        9.42424
C         12.74729       -1.49281        9.14559
H         13.71656       -1.36482        9.61542
H         12.70155       -2.50717        8.75895
H         11.98640       -1.38718        9.91625
C         13.63875       -0.46412        6.27126
H         13.54379       -1.46988        5.87386
H         14.67182       -0.32038        6.56594
H         13.42109        0.23227        5.46618
