77
CSD_code = ROFSAG | q = 0 | S = 0 | Stoichiometry = C22H48FeO2P2Si2 | MND = 6
Fe        -1.81129        0.51785        3.83003
P         -3.14393        0.24966        2.14079
C         -3.06273       -0.24311        4.78692
O         -3.86299       -0.84665        5.37301
C         -4.59591        1.38603        1.96253
C         -3.99144       -1.38795        1.99097
C         -2.99362       -2.53649        1.95587
Si        -0.54754        3.64390        2.08101
C         -2.37006        0.43172        0.46401
C          0.35771        5.01546        3.05363
C         -5.44299        1.44800        3.22384
C         -3.26888        0.39697       -0.76625
C          0.70605        2.68247        1.00521
C         -1.42756        2.57647        3.32886
C         -1.86739        4.45700        0.96022
H         -5.20261        1.06283        1.11156
H         -4.17845        2.37577        1.74860
H         -4.63123       -1.39223        1.10305
H         -4.63195       -1.48858        2.87161
H         -3.50401       -3.49496        2.03138
H         -2.41531       -2.52738        1.03463
H         -2.30166       -2.44150        2.79254
H         -1.62138       -0.36372        0.39925
H         -1.82362        1.37841        0.50269
H         -0.34538        5.60852        3.62989
H          1.08215        4.59896        3.74647
H          0.88816        5.68755        2.38533
H         -6.24139        2.18040        3.11254
H         -5.89568        0.48266        3.43985
H         -4.82243        1.73443        4.06910
H         -2.65180        0.42547       -1.66341
H         -3.86507       -0.51210       -0.80193
H         -3.93698        1.25439       -0.79372
H          1.72988        2.93136        1.27037
H          0.59299        1.60955        1.12521
H          0.57981        2.90638       -0.05089
H         -2.64854        4.91928        1.55573
H         -1.42591        5.23027        0.33767
H         -2.34162        3.73725        0.29933
P         -0.47851        0.24981        5.51927
C          0.97347        1.38615        5.69757
C          1.82041        1.44803        4.43618
H          2.61868        2.18062        4.54724
H          2.27320        0.48270        4.22033
H          1.19971        1.73417        3.59088
H          1.58018        1.06295        6.54852
H          0.55600        2.37589        5.91149
C          0.36881       -1.38789        5.66918
C         -0.62899       -2.53647        5.70431
H         -0.11859       -3.49494        5.62885
H         -1.20734       -2.52733        6.62553
H         -1.32089       -2.44152        4.86760
H          1.00865       -1.39221        6.55706
H          1.00927       -1.48852        4.78851
C         -1.25243        0.43184        7.19606
C         -0.35357        0.39681        8.42629
H         -0.97058        0.42529        9.32349
H          0.24248       -0.51236        8.46181
H          0.31467        1.25412        8.45385
H         -2.00131       -0.36340        7.26086
H         -1.79862        1.37867        7.15745
C         -0.55921       -0.24260        2.87349
O          0.24067       -0.84636        2.28719
C         -2.19503        2.57650        4.33140
Si        -3.07512        3.64397        5.57915
C         -3.98023        5.01558        4.60645
H         -3.27698        5.60871        4.03046
H         -4.70444        4.59912        3.91336
H         -4.51089        5.68761        5.27465
C         -4.32884        2.68260        6.65476
H         -5.35248        2.93099        6.38904
H         -4.21534        1.60983        6.53539
H         -4.20327        2.90707        7.71066
C         -1.75525        4.45677        6.70013
H         -0.97398        4.91884        6.10464
H         -2.19659        5.23018        7.32261
H         -1.28121        3.73695        7.36108
