56
CSD_code = ROZNIE | q = 0 | S = 0 | Stoichiometry = C20H32FeOSi2 | MND = 9
Fe         2.73233        0.33962        2.56393
H          2.78824        0.14449        3.97301
C          4.81841        0.51425        2.38154
H          5.57978        0.55233        3.14021
C          4.22085        1.64087        1.78250
H          4.45717        2.66429        2.00748
C          3.35097        1.17711        0.77298
H          2.78211        1.79038        0.09707
C          3.46780       -0.22852        0.70506
H          3.01622       -0.85669       -0.04024
C          4.38945       -0.63826        1.69144
H          4.77001       -1.63221        1.83277
C          1.04354        0.47252        2.24142
O         -0.06343        0.62587        1.96153
Si         2.11184        2.16912        3.70048
C          3.65147        2.84358        4.59202
C          4.07251        4.16166        4.46568
H          3.50111        4.84435        3.85457
C          5.21196        4.61610        5.10708
H          5.52368        5.64483        4.99148
C          5.95389        3.75408        5.89600
H          6.84557        4.10531        6.39518
C          5.54451        2.43865        6.04125
H          6.11641        1.75934        6.65790
C          4.40671        1.99630        5.39324
H          4.08917        0.97003        5.49624
C          1.48640        3.50600        2.47735
H          0.67160        3.11518        1.87994
H          2.26096        3.83678        1.79481
H          1.11179        4.37791        3.00343
C          0.75975        1.97681        5.04235
H          1.05856        1.25872        5.79645
H         -0.17271        1.63421        4.61061
H          0.56824        2.92097        5.54112
Si         2.06424       -1.69627        3.22582
C          3.43009       -2.71992        4.12526
H          2.95968       -3.55388        4.64543
H          4.11408       -3.16465        3.40373
C          4.22938       -1.90737        5.13011
H          4.74170       -1.09283        4.62705
H          4.96965       -2.52291        5.63929
H          3.56827       -1.47912        5.87896
C          1.63686       -2.79299        1.70172
H          2.52737       -2.94413        1.09250
H          1.34442       -3.78127        2.05656
C          0.52506       -2.23880        0.82476
H         -0.38291       -2.09623        1.40297
H          0.30188       -2.91431       -0.00028
H          0.80927       -1.27463        0.41265
C          0.55901       -1.68298        4.42728
H          0.89617       -1.33749        5.40385
H         -0.17646       -0.95711        4.08862
C         -0.12408       -3.03532        4.59245
H         -0.54061       -3.37166        3.64746
H         -0.93492       -2.97400        5.31672
H          0.58198       -3.78559        4.93861
