64
CSD_code = RUHYAU | q = 0 | S = 0 | Stoichiometry = C22H30N3O5PSi2W | MND = 6
W          3.59826        2.22915        2.63124
P          3.52114        4.41840        3.73847
Si         4.51611        6.69668        2.07314
Si         1.68261        6.90178        3.81736
O          3.87932        1.20145        5.58010
O          6.73375        2.16067        2.66374
O          3.25440        3.60158       -0.17058
O          0.47829        2.33267        2.96580
O          3.55631       -0.59130        1.27530
N          4.78606        4.93136        4.69939
N          2.44730        4.12851        5.00647
N          5.33459        5.01029        6.94576
C          3.75827        1.50190        4.48187
C          5.59370        2.21517        2.59011
C          3.41349        3.08276        0.83845
C          1.60777        2.27480        2.81243
C          3.57362        0.44239        1.76671
C          2.94372        5.86883        2.80725
H          2.39184        5.42815        1.97211
C          4.46353        4.74928        5.95536
C          3.08743        4.21746        6.12564
C          2.48864        3.70374        7.35472
C          3.21107        2.86449        8.20260
H          4.23473        2.61830        7.96392
C          2.60508        2.32203        9.31947
H          3.16571        1.66296        9.96558
C          1.28154        2.61476        9.60738
H          0.81353        2.19261       10.48411
C          0.55569        3.43810        8.76192
H         -0.47947        3.65721        8.97752
C          1.14980        3.97116        7.63375
H          0.59064        4.60168        6.95897
C          4.93924        5.42799        8.26998
H          5.26769        6.45847        8.43914
H          5.40376        4.78985        9.02573
H          3.86050        5.38619        8.38622
C          6.68947        5.36341        6.58578
H          6.94616        4.87037        5.65132
H          7.36215        5.03136        7.37684
H          6.80140        6.44425        6.45351
C          5.87394        5.42073        1.69108
H          5.55158        4.69175        0.95259
H          6.14261        4.88498        2.59581
H          6.77117        5.89842        1.30748
C          5.22343        7.97644        3.29929
H          6.07245        8.49138        2.86130
H          5.56574        7.48452        4.20364
H          4.49079        8.72603        3.57892
C          3.99551        7.54000        0.44419
H          3.24248        8.30332        0.60034
H          3.59741        6.82258       -0.26607
H          4.85291        8.01541       -0.01871
C          2.34803        7.40634        5.53883
H          2.05995        8.42389        5.78486
H          3.43061        7.34996        5.57729
H          1.95793        6.75793        6.31741
C          1.30210        8.49693        2.84250
H          0.96534        8.27611        1.83574
H          2.16224        9.15262        2.76785
H          0.50986        9.04949        3.33557
C          0.05812        5.91148        3.96041
H         -0.64580        6.39830        4.62984
H          0.24024        4.90770        4.33179
H         -0.42548        5.81951        2.99162
