82
CSD_code = RUQYUX | q = 0 | S = 0 | Stoichiometry = C23H53ClOOsP2Si | MND = 6
Os         3.67565       31.42415       16.00575
Cl         5.58842       30.01986       16.33149
C          3.95091       31.02401       14.07736
C          2.21651       32.50665       15.62546
O          1.30476       33.18401       15.39550
P          5.13231       33.28943       16.40671
C          4.20659       34.83364       16.95028
C          6.50880       32.92287       17.63200
C          6.07867       33.95081       14.93471
C          3.22170       34.60633       18.09481
C          5.08754       36.04146       17.26094
C          7.77001       33.78015       17.53482
C          5.99756       32.91320       19.07129
C          6.82174       32.79552       14.27529
C          5.13988       34.61765       13.93614
P          2.28995       29.60445       16.74053
C          3.17043       28.27387       17.72406
C          0.77926       30.20945       17.69736
C          1.47550       28.60638       15.38258
C          3.93027       28.80497       18.93753
C          2.31521       27.07893       18.13984
C         -0.41192       29.25605       17.79059
C          1.13774       30.70023       19.09843
C          2.53068       27.86446       14.57150
C          0.67427       29.54579       14.48891
Si         3.36029       31.39640       12.31927
C          1.93986       32.66521       12.18757
C          4.81895       32.02401       11.24468
C          2.79933       29.78346       11.44659
H          3.63925       31.59850       17.61033
H          4.77168       30.29834       13.94422
H          3.60426       35.05542       16.05882
H          6.77715       31.88981       17.37237
H          6.80134       34.68558       15.30172
H          3.73088       34.49987       19.04788
H          2.62428       33.71523       17.91708
H          2.54845       35.45984       18.16464
H          4.45628       36.92122       17.38430
H          5.79685       36.25069       16.46476
H          5.63301       35.89649       18.18986
H          7.56298       34.83587       17.68904
H          8.28005       33.65525       16.58395
H          8.45772       33.45920       18.31689
H          6.70637       32.38473       19.70720
H          5.04093       32.39978       19.13575
H          5.88676       33.92392       19.45876
H          6.09874       32.09782       13.85507
H          7.43509       32.24925       14.98935
H          7.45990       33.15699       13.47000
H          5.65646       34.77043       12.98979
H          4.79653       35.58864       14.28505
H          4.27531       33.97689       13.75815
H          3.92802       27.93864       17.00213
H          0.47317       31.08619       17.10904
H          0.79816       27.88355       15.84697
H          3.26246       29.08035       19.74856
H          4.53323       29.66540       18.66464
H          4.60523       28.03070       19.29985
H          2.97298       26.29043       18.50452
H          1.73258       26.67005       17.31886
H          1.64412       27.34544       18.95317
H         -0.14977       28.33208       18.29668
H         -0.83030       29.01355       16.81865
H         -1.19572       29.74173       18.37167
H          0.35937       31.36616       19.46831
H          2.07681       31.24814       19.08729
H          1.22118       29.86592       19.79070
H          2.08985       27.44982       13.66652
H          2.97300       27.04780       15.13731
H          3.32150       28.55457       14.27795
H          1.33552       30.30687       14.07662
H         -0.12127       30.04830       15.03397
H          0.22341       28.99143       13.66682
H          1.03874       32.32083       12.68493
H          1.68923       32.84524       11.14599
H          2.20389       33.62145       12.62836
H          5.12059       33.03389       11.49817
H          4.53320       32.02247       10.19667
H          5.68984       31.38298       11.34521
H          3.52723       28.98837       11.57733
H          2.69627       29.95803       10.37950
H          1.84452       29.42188       11.81119
