73
CSD_code = RUQZUY | q = 0 | S = 0 | Stoichiometry = C31H39NbSi2 | MND = 13
Nb         7.61884       10.61961       14.22944
Si         7.95155        7.01556       14.92025
Si         8.10019       13.74825       11.58214
C          7.13890        8.69356       15.31298
C          5.74578        8.87858       14.92915
C          5.06519        9.49090       15.95920
C          5.97296        9.73706       17.01332
C          7.21157        9.26099       16.64764
C          9.51483        7.11957       13.81062
C          8.40710        6.15238       16.56604
C          6.68410        5.91928       13.99422
C          7.33636       13.09354       13.16938
C          7.87481       13.19106       14.47218
C          6.94134       12.68001       15.40016
C          5.80503       12.26788       14.67198
C          6.05925       12.49844       13.30616
C         10.00258       13.56988       11.67241
C          7.66661       15.60166       11.39287
C          7.38295       12.78652       10.09449
C          8.49196       10.24296       12.31887
C          7.33006        9.64874       12.32790
C          6.51066        8.84838       11.44963
C          7.05824        7.76462       10.75504
C          6.26155        6.97769        9.94618
C          4.91207        7.25981        9.80369
C          4.35991        8.33577       10.48065
C          5.14683        9.11790       11.30334
C          9.86963       10.68790       14.84618
C         10.09763       10.61481       16.30020
C          9.91560       11.72431       17.13299
C         10.11042       11.63631       18.49799
C         10.50959       10.44155       19.07453
C         10.72726        9.33868       18.26454
C         10.52842        9.42569       16.90011
H          5.29428        8.45205       14.04474
H          4.01118        9.72154       15.97846
H          5.72551       10.20794       17.95153
H          8.07602        9.21396       17.29025
H          9.42207        7.91234       13.07017
H         10.41511        7.30562       14.38714
H          9.66264        6.18148       13.28448
H          8.84903        5.17868       16.38122
H          9.11779        6.73360       17.14389
H          7.52771        6.00481       17.18485
H          6.43203        6.33480       13.02298
H          7.08681        4.92497       13.82927
H          5.76398        5.81014       14.55928
H          8.79242       13.70849       14.71714
H          7.00317       12.75871       16.47990
H          4.85357       11.97633       15.09758
H          5.34480       12.37548       12.50259
H         10.42924       14.30126       12.35258
H         10.29765       12.58406       12.02113
H         10.45845       13.73026       10.70036
H          8.05520       16.18863       12.21941
H          8.08749       16.00403       10.47691
H          6.59268       15.75747       11.35800
H          7.36866       11.71574       10.27861
H          6.36357       13.09780        9.88700
H          7.96327       12.96334        9.19447
H          9.25119       10.36253       11.55029
H          8.10953        7.54511       10.87038
H          6.69489        6.13954        9.41987
H          4.29321        6.64370        9.16865
H          3.30840        8.55922       10.37080
H          4.71551        9.95437       11.83834
H         10.23483       11.64771       14.46704
H         10.44811        9.89876       14.35374
H          9.62876       12.67382       16.70094
H          9.95706       12.50812       19.11891
H         10.66077       10.37383       20.14164
H         11.05686        8.40602       18.70127
H         10.70389        8.55980       16.27653
