110
CSD_code = RUXTEL | q = 0 | S = 0 | Stoichiometry = C41H61N3PSScSeSi | MND = 5
Se         9.98879        5.01785       19.95010
Sc         9.42934        2.55154       19.74491
S         10.03948        2.33443       17.22164
P         11.52580        3.52788       17.83434
Si        12.98286        4.12376       20.64196
N          7.34773        2.37954       19.93997
N          9.80355        1.12785       21.26418
N         11.09308       -1.24843       19.77602
C          5.29613        1.64554       21.10906
H          4.99221        2.07669       22.06123
H          4.99600        0.59834       21.12000
H          4.77634        2.15570       20.30261
C          6.80014        1.73630       20.96002
C          7.50969        1.09125       21.97628
H          6.87621        0.70384       22.76196
C          8.87311        0.81670       22.14718
C          9.22041        0.09295       23.43137
H          9.47757       -0.94804       23.23546
H          8.37483        0.10664       24.11240
H         10.06519        0.57235       23.92281
C         11.15186        0.59095       21.42782
H         11.18278       -0.22434       22.15401
H         11.82772        1.39282       21.75754
C         11.68352        0.02327       20.09234
H         11.50229        0.78286       19.29778
H         12.76262       -0.09815       20.19507
C         11.97304       -2.38913       19.61586
H         11.34355       -3.21768       19.27938
C         12.56947       -2.79065       20.96962
H         13.23402       -2.01883       21.34957
H         13.13743       -3.71230       20.86968
H         11.77387       -2.94940       21.69291
C         13.09247       -2.19817       18.57994
H         12.68448       -1.86340       17.63057
H         13.60681       -3.14304       18.42047
H         13.82529       -1.46838       18.91648
C          9.81434       -1.24367       19.08980
H          9.41449       -0.21751       19.18955
C          9.88762       -1.56118       17.59064
H         10.48876       -0.81820       17.07142
H          8.88711       -1.53229       17.16786
H         10.30377       -2.54913       17.41028
C          8.82765       -2.18231       19.79195
H          9.14453       -3.21909       19.70682
H          7.83952       -2.08579       19.34965
H          8.75976       -1.92424       20.84537
C          6.49923        3.04091       18.99515
C          6.13549        2.37621       17.80966
C          5.27609        3.00887       16.92237
H          4.97323        2.50216       16.01953
C          4.79008        4.27578       17.17968
H          4.11701        4.75025       16.48084
C          5.17075        4.93362       18.33229
H          4.79177        5.92542       18.52409
C          6.02030        4.33932       19.25573
C          6.39881        5.10633       20.50469
H          7.20414        4.56259       21.02412
C          6.92196        6.50303       20.15710
H          7.66939        6.44885       19.36625
H          7.39331        6.94591       21.03229
H          6.11800        7.15804       19.83012
C          5.20593        5.23969       21.45555
H          4.38964        5.76853       20.96764
H          5.50103        5.80236       22.33850
H          4.83990        4.26848       21.77379
C          6.63652        0.97973       17.50437
H          7.50781        0.77432       18.14916
C          7.09118        0.84344       16.05023
H          6.25113        0.90405       15.36330
H          7.57597       -0.11856       15.90101
H          7.80651        1.62352       15.80364
C          5.55076       -0.05586       17.81183
H          5.29233       -0.04625       18.86694
H          5.89804       -1.05389       17.55075
H          4.65290        0.15694       17.23502
C         11.47689        3.63445       19.60390
C         12.32103        4.01397       22.44042
H         12.36000        4.98780       22.91637
H         12.89639        3.32707       23.05388
H         11.27704        3.69582       22.45321
C         13.70953        5.87671       20.40498
H         14.16914        6.01130       19.42970
H         14.46842        6.07318       21.15690
H         12.92853        6.62440       20.51885
C         14.38105        2.83772       20.39558
H         14.02134        1.90012       19.98359
H         14.86257        2.62516       21.34364
H         15.14149        3.21637       19.72210
C         13.10721        2.80669       17.29057
C         14.20560        3.64577       17.13648
H         14.09366        4.70524       17.32214
C         15.42254        3.12438       16.74342
H         16.27423        3.77787       16.62137
C         15.55134        1.76436       16.50548
H         16.50482        1.35839       16.20120
C         14.45654        0.92892       16.64673
H         14.55334       -0.12879       16.44904
C         13.23452        1.44864       17.03429
H         12.36638        0.80901       17.11695
C         11.46898        5.03286       16.80147
C         11.22995        4.85820       15.44285
H         11.04453        3.86354       15.05886
C         11.21921        5.95540       14.60347
H         11.03213        5.82255       13.54776
C         11.44503        7.22266       15.11772
H         11.43160        8.07993       14.46041
C         11.68061        7.39326       16.47175
H         11.84988        8.38152       16.87313
C         11.69702        6.29923       17.31862
H         11.86406        6.42630       18.37828
