125
CSD_code = SAQBAO | q = 0 | S = 0 | Stoichiometry = C55H59ClN3P4Si2Y | MND = 5
Y          0.67097        7.20177       15.63514
Cl        -1.63790        6.38893       15.74680
Si         0.61239        5.10684       18.62841
Si         0.36335        4.69880       12.99746
N          1.41781        6.08023       17.41082
N          1.31558        5.44580       14.26696
N          0.75598        9.25498       15.06149
P          2.99506        6.07576       17.17688
P          2.90049        5.59658       14.26289
P         -0.11766        9.13090       13.61552
P          0.69063       10.65812       15.99855
C          3.32739        6.72265       15.56164
H          4.37875        7.02971       15.48017
C          3.85323        7.26131       18.26029
C          3.07910        8.01154       19.13488
H          2.01076        7.83445       19.16900
C          3.67065        8.96509       19.94386
H          3.06711        9.54333       20.62772
C          5.03725        9.17619       19.87749
H          5.50085        9.91893       20.50956
C          5.81193        8.44141       18.99412
H          6.87705        8.61416       18.93716
C          5.22309        7.49205       18.18054
H          5.82573        6.92895       17.47990
C          3.70676        4.43898       17.53126
C          4.84584        4.19376       18.28418
H          5.38687        5.01028       18.73957
C          5.26960        2.89015       18.47616
H          6.15366        2.69705       19.06639
C          4.55959        1.83483       17.92877
H          4.89038        0.81999       18.09245
C          3.42003        2.07950       17.17901
H          2.86150        1.25598       16.75886
C          3.00183        3.37925       16.97307
H          2.11409        3.60213       16.39395
C          3.85552        4.03304       14.27386
C          5.21634        4.10904       14.55498
H          5.66568        5.07364       14.75327
C          5.98907        2.96428       14.57986
H          7.04367        3.02949       14.80503
C          5.40966        1.73408       14.31301
H          6.01408        0.83937       14.32821
C          4.05670        1.65381       14.02922
H          3.60514        0.69516       13.81951
C          3.27846        2.79754       14.01784
H          2.21973        2.74004       13.81889
C          3.53946        6.42287       12.76286
C          4.49268        5.89917       11.89837
H          4.95492        4.94470       12.10968
C          4.85336        6.60226       10.76204
H          5.59500        6.19071       10.09272
C          4.26557        7.82398       10.47950
H          4.54890        8.36622        9.58962
C          3.31088        8.34956       11.33589
H          2.84788        9.30053       11.11913
C          2.95048        7.64844       12.47116
H          2.19872        8.04562       13.15051
C         -0.74838        6.20269       19.38241
H         -0.35645        7.06928       19.90608
H         -1.33025        5.62519       20.09204
H         -1.42677        6.55460       18.61058
C          1.80696        4.57366       20.02270
H          2.24090        3.59792       19.83079
H          1.28488        4.51937       20.97166
H          2.62444        5.28156       20.13205
C         -0.23909        3.58193       17.84762
H         -0.58008        3.80913       16.84071
H         -1.11485        3.32008       18.43228
H          0.40118        2.70607       17.80633
C         -0.81589        5.98744       12.23284
H         -1.45142        6.42588       12.99750
H         -1.46200        5.50950       11.50328
H         -0.28083        6.79015       11.72871
C          1.42397        4.02255       11.55138
H          2.48505        4.05069       11.77733
H          1.26822        4.61411       10.65484
H          1.16137        2.99708       11.31368
C         -0.67499        3.31102       13.80786
H         -0.08704        2.59847       14.38008
H         -1.21805        2.75907       13.04796
H         -1.40672        3.75254       14.47833
C          0.59336       10.41315       12.51045
C          1.69133       11.18995       12.84832
H          2.14991       11.07851       13.82254
C          2.19577       12.11001       11.94522
H          3.04409       12.72142       12.21884
C          1.61737       12.24445       10.69416
H          2.01311       12.96133        9.98931
C          0.53024       11.45674       10.34458
H          0.08142       11.55922        9.36688
C          0.02298       10.54249       11.24707
H         -0.82804        9.92522       10.98919
C         -1.71459        9.99839       13.92051
C         -2.86200        9.23151       14.09674
H         -2.80676        8.15412       14.01399
C         -4.06459        9.84302       14.40660
H         -4.95066        9.24146       14.54634
C         -4.12769       11.21948       14.54372
H         -5.06528       11.69674       14.78998
C         -2.98782       11.98663       14.36338
H         -3.03673       13.06112       14.46709
C         -1.78466       11.38220       14.04818
H         -0.89976       11.98439       13.89331
C         -0.06010        9.98211       17.54441
C         -1.32795        9.41244       17.39123
H         -1.74055        9.27451       16.39706
C         -2.10374        9.10377       18.49427
H         -3.09002        8.68714       18.35221
C         -1.62249        9.34936       19.77008
H         -2.23152        9.12421       20.63323
C         -0.35560        9.88533       19.93374
H          0.02761       10.06837       20.92866
C          0.41801       10.20865       18.83299
H          1.39520       10.64667       18.97785
C          2.43609       10.83388       16.53986
C          2.75161       11.88705       17.39598
H          1.96024       12.53563       17.74975
C          4.06076       12.11422       17.77549
H          4.29487       12.92530       18.45076
C          5.07610       11.31495       17.27531
H          6.10095       11.49763       17.56463
C          4.77597       10.30051       16.38301
H          5.57003        9.69765       15.96396
C          3.46434       10.06352       16.01381
H          3.23192        9.28679       15.29648
