90
CSD_code = SATVOA | q = 0 | S = 0 | Stoichiometry = C35H45BIrN7Si | MND = 6
Ir         3.64725       12.45949        9.72070
Si         8.12717       10.62878        6.80724
N          2.66016       10.46705        9.95755
N          1.71025       10.39726       10.89950
N          1.67080       13.23286        9.67088
N          0.76819       12.67316       10.49574
N          3.47396       12.58325       11.92155
N          2.27786       12.27030       12.44236
N          6.18681       11.36192        8.65758
H          5.88179       11.88541        7.83884
C          2.91684        9.23063        9.54326
C          2.10500        8.33562       10.24633
H          2.07222        7.26970       10.14081
C          1.35113        9.11595       11.10255
C          3.91013        8.88461        8.48888
H          4.87895        8.65649        8.93477
H          4.03095        9.71025        7.79346
H          3.57162        8.00382        7.94639
C          0.32647        8.67821       12.08691
H         -0.64202        9.12311       11.86399
H          0.60949        8.97493       13.09576
H          0.23186        7.59571       12.05260
C          1.02536       14.07388        8.86660
C         -0.33520       14.05298        9.18587
H         -1.11670       14.61987        8.72136
C         -0.46109       13.15032       10.22360
C          1.66529       14.89671        7.80602
H          1.59566       14.38926        6.84432
H          2.71452       15.06124        8.02901
H          1.15298       15.85374        7.72699
C         -1.69943       12.74356       10.93953
H         -1.63355       12.98434       11.99946
H         -1.86575       11.67149       10.84626
H         -2.55000       13.26927       10.51294
C          4.22901       13.07535       12.89754
C          3.49425       13.07434       14.08775
H          3.82267       13.40790       15.05160
C          2.25629       12.55780       13.75783
C          5.62702       13.55329       12.72597
H          6.06336       13.15199       11.81705
H          6.22794       13.25923       13.58536
H          5.64076       14.64047       12.65371
C          1.08284       12.34098       14.64506
H          0.22602       12.91683       14.29871
H          1.33186       12.65588       15.65535
H          0.79721       11.29028       14.66449
C          3.60020       12.41015        7.66304
C          4.47132       13.07129        6.78433
H          5.22221       13.74594        7.17423
C          4.37356       12.95503        5.40530
H          5.07059       13.48813        4.77170
C          3.38616       12.17115        4.83784
H          3.30906       12.07197        3.76443
C          2.48566       11.53278        5.67263
H          1.69025       10.93397        5.24908
C          2.59317       11.65591        7.04755
H          1.85673       11.14530        7.65221
C          4.54657       14.31041        9.79278
C          5.86675       14.61233        9.43857
H          6.51414       13.84882        9.02621
C          6.41774       15.87150        9.61471
H          7.44366       16.05188        9.32087
C          5.66923       16.89286       10.16868
H          6.09469       17.87687       10.30654
C          4.36820       16.62515       10.55314
H          3.76678       17.40425       11.00275
C          3.82805       15.36346       10.37005
H          2.80937       15.21028       10.69767
C          7.29287       10.60095        8.52602
C          7.69622        9.86123        9.60875
H          8.57872        9.24643        9.54738
C          6.93566        9.91060       10.78546
H          7.23956        9.32324       11.64079
C          5.80850       10.69031       10.84361
H          5.22244       10.70750       11.74870
C          5.38065       11.47817        9.74507
C          6.81128       10.00044        5.58235
H          6.45894        9.00835        5.84961
H          7.20927        9.94487        4.57396
H          5.94576       10.65744        5.55361
C          8.58537       12.44315        6.45009
H          7.70087       13.06872        6.37357
H          9.12530       12.53118        5.51243
H          9.21622       12.85989        7.23005
C          9.66776        9.51098        6.83443
H         10.16299        9.51386        5.86835
H          9.41018        8.48134        7.06361
H         10.39200        9.84480        7.57141
B          1.16335       11.66140       11.58102
H          0.22885       11.39193       12.24956
