71
CSD_code = SEQGIH | q = 0 | S = 0 | Stoichiometry = C19H45CoNP3Si2 | MND = 6
Co         2.80380        6.83982        3.62181
H          4.22103        6.95259        3.44724
P          2.84792        5.53055        1.72313
P          3.29654        5.13590        5.08632
P          0.62109        6.89805        4.06208
Si         2.82925        8.74203        2.33550
Si         3.23623        8.57335        5.07535
N          2.98031        9.75741        3.77772
C          3.17119       11.11567        3.81728
C          2.89118       11.92273        2.70919
H          2.52973       11.46612        1.80459
C          3.06913       13.29067        2.75264
H          2.84080       13.88273        1.87639
C          3.53420       13.90900        3.90068
H          3.67148       14.97987        3.93327
C          3.82578       13.12476        5.00368
H          4.20022       13.58503        5.90825
C          3.65051       11.75642        4.96413
H          3.90273       11.16587        5.82700
C          4.36648        9.14827        1.23728
H          5.28599        8.80081        1.69384
H          4.44585       10.22362        1.12085
H          4.28993        8.71052        0.24689
C          1.34047        9.28772        1.21479
H          0.67267        8.46500        0.98599
H          1.71663        9.67445        0.27259
H          0.75778       10.06884        1.68823
C          5.04962        8.74467        5.73451
H          5.60032        7.81174        5.69030
H          5.06449        9.09185        6.76288
H          5.58404        9.46579        5.12691
C          2.16084        9.11163        6.59336
H          1.13624        9.33044        6.31534
H          2.57137       10.00989        7.03999
H          2.15529        8.34586        7.36198
C          2.01703        6.04776        0.16249
H          0.93654        6.05179        0.28412
H          2.28040        5.36406       -0.64419
H          2.34363        7.05186       -0.09069
C          4.54934        5.40603        1.04505
H          4.89810        6.40854        0.81356
H          4.56424        4.78843        0.14689
H          5.21148        4.97990        1.79477
C          2.42170        3.73097        1.64878
H          3.10679        3.17825        2.28861
H          2.51812        3.36380        0.62760
H          1.40383        3.56570        1.99441
C          4.98322        4.43843        4.86228
H          5.04992        3.95024        3.89201
H          5.21205        3.71768        5.64723
H          5.70269        5.25348        4.88894
C          2.40543        3.52120        5.27582
H          1.34304        3.67774        5.44543
H          2.82231        2.96487        6.11464
H          2.51924        2.93338        4.36873
C          3.44207        5.57087        6.86753
H          4.12623        6.40897        6.96301
H          3.81843        4.72061        7.43621
H          2.47461        5.86959        7.26134
C         -0.47111        5.73166        3.13947
H         -0.36270        5.89945        2.07024
H         -1.51370        5.87569        3.42368
H         -0.17242        4.70876        3.36368
C          0.04999        6.43819        5.75307
H          0.46175        5.47435        6.03952
H         -1.03890        6.38217        5.77454
H          0.38679        7.18660        6.46309
C         -0.39130        8.42191        3.86869
H          0.20175        9.28701        4.15369
H         -1.28643        8.36574        4.48772
H         -0.68358        8.53185        2.82843
