60
CSD_code = SEVDOM | q = 0 | S = 0 | Stoichiometry = C21H32CrO4Si2 | MND = 9
Cr         4.46844        7.46500        0.05831
Si         4.48191        8.86470       -5.14673
Si         2.22901        5.07376       -4.95726
O          2.34879        9.52228       -2.82837
O          3.41721        4.84132        0.97933
O          5.09492        7.61756        2.96411
O          1.76641        8.16223        1.08278
C          2.82553        8.19640       -2.87467
C          3.17696        7.72388       -4.29858
C          3.60875        6.23828       -4.28104
C          4.06148        5.76388       -2.88289
C          5.97944        6.70381       -1.46492
C          6.55310        7.78150       -0.79145
C          5.89317        9.02807       -0.75541
C          4.66069        9.18080       -1.38621
C          4.07641        8.08703       -2.05447
C          4.73020        6.85065       -2.10069
C          0.98224        9.67887       -3.13579
C          0.59158       11.11940       -2.84806
C          4.49743        8.34584       -6.98595
C          6.24864        8.60478       -4.46292
C          4.04585       10.71703       -5.06510
C          1.95691        5.45369       -6.80612
C          2.78781        3.26247       -4.75461
C          0.60823        5.35731       -3.99205
C          3.85991        5.84268        0.60085
C          4.89767        7.58556        1.82524
C          2.82242        7.93232        0.67062
H          2.05491        7.52450       -2.45500
H          2.25961        7.81220       -4.88830
H          4.47850        6.14010       -4.93782
H          3.18774        5.43109       -2.31420
H          4.72117        4.90095       -2.99022
H          6.51969        5.76787       -1.55535
H          7.54336        7.68718       -0.36108
H          6.38119        9.87970       -0.29608
H          4.17065       10.14397       -1.43483
H          0.79542        9.44148       -4.19410
H          0.38286        8.99236       -2.51810
H          0.76506       11.34455       -1.79946
H          1.19078       11.79410       -3.45336
H         -0.45937       11.27175       -3.07647
H          4.78133        7.30697       -7.11824
H          3.52496        8.47867       -7.44913
H          5.20651        8.94948       -7.54287
H          6.40294        9.12114       -3.52040
H          6.48155        7.55532       -4.30792
H          6.97715        8.99583       -5.16711
H          3.09037       10.91706       -5.54017
H          3.98129       11.07267       -4.04307
H          4.79808       11.30701       -5.58075
H          1.66153        6.48501       -6.96971
H          2.85699        5.27668       -7.38630
H          1.17554        4.82212       -7.21665
H          3.74990        3.08387       -5.22506
H          2.87434        2.98309       -3.70941
H          2.07261        2.58674       -5.21257
H          0.72478        5.14641       -2.93300
H          0.25305        6.37913       -4.08758
H         -0.17718        4.70680       -4.36454
