68
CSD_code = SIDYIP | q = 0 | S = 0 | Stoichiometry = C25H39LaOSi2 | MND = 16
La        -5.33051        9.46444       -1.73779
Si        -5.20696        5.59628       -2.45219
Si        -7.71636       12.63609       -1.37869
O         -2.78500        8.91410       -2.58328
C         -3.98243        8.57315        0.49136
H         -3.04761        8.03126        0.46368
C         -5.26474        7.99183        0.59339
H         -5.47660        6.93306        0.63430
C         -6.19581        9.02563        0.82955
H         -7.23670        8.88620        1.08791
C         -5.48917       10.24608        0.88076
H         -5.89876       11.20078        1.18038
C         -4.12082        9.96689        0.66940
H         -3.31008       10.67409        0.79129
C         -7.25969        7.70503       -2.27273
H         -7.70780        7.28771       -1.37789
C         -7.93479        8.47174       -3.22612
H         -8.92291        8.89303       -3.11997
C         -7.13910        8.54395       -4.38195
H         -7.40716        9.04677       -5.29697
C         -5.97037        7.83065       -4.15970
H         -5.22454        7.61038       -4.90975
C         -5.99478        7.26619       -2.83904
C         -4.86512        4.69348       -4.10543
H         -5.75178        4.67387       -4.72976
H         -4.55873        3.66662       -3.93267
H         -4.07618        5.17881       -4.67167
C         -6.41596        4.52490       -1.42944
H         -7.35708        4.39219       -1.95278
H         -6.63728        4.97081       -0.46501
H         -5.99778        3.54043       -1.24456
C         -3.52947        5.64723       -1.51569
H         -3.66760        5.59096       -0.44113
H         -2.97405        6.55502       -1.72772
H         -2.90856        4.80432       -1.80451
C         -4.78720       12.23010       -1.67839
H         -4.52221       12.77025       -0.78005
C         -3.89427       11.82280       -2.67551
H         -2.82498       11.98122       -2.66794
C         -4.64432       11.30251       -3.75415
H         -4.25421       11.02083       -4.72340
C         -6.00694       11.39323       -3.41790
H         -6.83289       11.25277       -4.10115
C         -6.11994       11.96810       -2.11162
C         -7.34527       14.00755       -0.10175
H         -6.75194       13.63737        0.72801
H         -8.26566       14.40947        0.30947
H         -6.79993       14.82844       -0.55534
C         -8.79755       13.36369       -2.77639
H         -9.13193       12.58788       -3.45762
H         -8.25073       14.09842       -3.35815
H         -9.68096       13.84990       -2.37467
C         -8.72831       11.24600       -0.52383
H         -8.46297       11.14098        0.52365
H         -8.56708       10.28244       -1.00715
H         -9.79273       11.45808       -0.56535
C         -1.56469        9.20971       -1.89638
H         -1.17404        8.29003       -1.44069
H         -1.79014        9.92888       -1.10841
C         -0.57255        9.75068       -2.94187
H          0.37471        9.21784       -2.88148
H         -0.37524       10.80994       -2.79246
C         -1.27690        9.49667       -4.28141
H         -1.71313       10.41846       -4.66376
H         -0.61180        9.08425       -5.03583
C         -2.38571        8.51942       -3.89604
H         -3.25781        8.57079       -4.54651
H         -2.00540        7.48862       -3.87120
