86
CSD_code = SIGMAY | q = 0 | S = 0 | Stoichiometry = C32H43F3N4OSi2Ti | MND = 6
Ti         3.95316       10.05096        5.45035
O          3.78057       10.95491        3.21357
N          4.89929        8.54550        6.13795
N          3.67807       11.48930        6.66978
N          5.67159       10.55675        4.80662
N          2.24666        9.49910        4.79496
Si         4.77235        6.89486        5.62469
Si         1.04446        9.02055        5.93372
C          6.17270        9.05614        6.48242
C          6.56497       10.17034        5.76200
C          6.93239        8.40005        7.52409
C          8.33521        8.37911        7.55733
C          9.01967        7.74537        8.57176
C          8.32265        7.10196        9.58754
C          6.92961        7.07214        9.55592
C          6.25421        7.70437        8.54022
C          9.03289        6.40560       10.70142
C          7.79182       11.00347        6.02557
C          4.67781       11.77936        7.59585
C          5.30427       13.03429        7.59123
C          6.32957       13.31359        8.47239
C          6.75561       12.35554        9.37931
C          6.12753       11.12093        9.41349
C          5.09325       10.83610        8.54162
C          2.64634       12.40280        6.57596
C          2.05636       12.71425        5.34254
C          0.99794       13.59924        5.26924
C          0.50327       14.20921        6.41152
C          1.09112       13.92894        7.63539
C          2.14611       13.04478        7.72207
C          5.04963       11.19594        2.63512
C          5.96426       11.55373        3.81598
C          2.93672       10.06651        2.50878
C          1.77031        9.75587        3.45496
C          3.67713        5.80195        6.75971
C          6.48199        6.03723        5.49023
C          4.03062        6.87372        3.85532
C          1.87916        8.98281        7.65034
C          0.30675        7.29528        5.49737
C         -0.46744       10.20648        6.02662
F          8.59199        6.79010       11.91821
F         10.35972        6.60697       10.70681
F          8.86206        5.06436       10.66884
H          8.89903        8.82036        6.75340
H         10.09928        7.73747        8.57583
H          6.39125        6.55639       10.33746
H          5.17617        7.67601        8.52001
H          8.12022       10.87886        7.05379
H          7.55940       12.05716        5.87078
H          8.61150       10.73462        5.35657
H          4.96817       13.78285        6.88351
H          6.80353       14.28471        8.45056
H          7.56174       12.57504       10.06275
H          6.43849       10.37680       10.13250
H          4.57054        9.89046        8.59921
H          2.46167       12.26810        4.44362
H          0.55825       13.82657        4.30768
H         -0.32438       14.89906        6.34836
H          0.71931       14.40252        8.53270
H          2.59740       12.82845        8.68160
H          4.98671       12.00502        1.89153
H          5.42418       10.28200        2.14867
H          5.71402       12.57189        4.17033
H          7.01451       11.54347        3.49033
H          2.57523       10.53429        1.57881
H          3.48582        9.14646        2.25757
H          1.08002       10.61579        3.44534
H          1.21505        8.89713        3.04541
H          3.42779        4.87574        6.25177
H          4.19263        5.53409        7.67683
H          2.74649        6.29012        7.02836
H          6.41370        5.12133        4.91237
H          6.87677        5.77926        6.46662
H          7.20933        6.68215        5.00620
H          3.88082        5.85990        3.49823
H          4.69459        7.37441        3.15196
H          3.06930        7.37858        3.85040
H          1.36235        8.30414        8.32130
H          1.86339        9.96896        8.10860
H          2.91487        8.65640        7.55685
H         -0.29083        6.90681        6.31548
H          1.07824        6.56438        5.27553
H         -0.34430        7.35981        4.63043
H         -1.17959        9.87301        6.77459
H         -0.16847       11.21842        6.28445
H         -0.99443       10.24976        5.07798
