37
CSD_code = SIKQOT | q = 0 | S = 0 | Stoichiometry = C10H20Cl3N2NbSi | MND = 10
Nb         3.93430        6.95702        4.39970
Cl         4.23118        7.25149        2.07921
Cl         4.81605        9.21875        4.59194
Cl         4.47600        4.59751        3.90311
Si         1.08834        4.81537        2.96082
N          4.73606        6.51696        6.13288
N          6.36652        6.80875        4.08466
C          6.08501        6.04710        6.33456
C          6.99241        6.85740        5.40269
C          1.62034        7.63474        3.69017
C          1.79438        8.42216        4.84202
C          1.93245        7.55557        5.94450
C          1.83560        6.22817        5.46734
C          1.63310        6.26312        4.05756
C          1.22708        3.20136        3.96686
C          2.06507        4.73867        1.32914
C         -0.75303        5.17549        2.58912
H          4.24700        6.53029        7.02230
H          6.13353        4.98065        6.04850
H          6.41294        6.15306        7.37416
H          6.99702        7.89963        5.73757
H          8.01451        6.46083        5.39723
H          6.68592        7.57244        3.48639
H          6.56209        5.91776        3.61933
H          1.39297        8.01326        2.70161
H          1.76873        9.50183        4.88605
H          1.99022        7.86237        6.98073
H          1.76011        5.33937        6.08136
H          2.24244        3.03262        4.31188
H          0.94405        2.35227        3.35322
H          0.57061        3.21020        4.83261
H          2.00288        5.67553        0.78201
H          1.67990        3.95424        0.68455
H          3.11697        4.53544        1.50837
H         -0.87788        6.07700        1.99779
H         -1.33215        5.29654        3.49940
H         -1.18712        4.35414        2.02987
