111
CSD_code = SOMQAN | q = 0 | S = 0 | Stoichiometry = C44H60N2PSScSi2 | MND = 4
Sc         3.14854        7.55219        4.39692
N          1.50482        7.37981        5.82820
N          3.37742        5.31103        4.33059
P          3.28470        4.97208        5.90051
S          2.20828        9.35026        7.93280
Si         6.15919        9.53166        4.15483
Si         1.54035        9.34442        1.66350
C          1.08738        6.47717        6.73961
C         -0.00964        6.65113        7.62197
H         -0.54141        7.58966        7.64118
C         -0.40494        5.66429        8.49025
H         -1.24823        5.84595        9.14221
C          0.26142        4.44443        8.55712
H         -0.06027        3.67661        9.24321
C          1.35616        4.24739        7.74441
H          1.91003        3.31897        7.79720
C          1.77139        5.22980        6.85119
C          4.53303        6.02108        6.72488
C          4.24608        6.64465        7.93702
H          3.25124        6.57646        8.35470
C          5.23336        7.34521        8.60916
H          4.99702        7.83990        9.53924
C          6.51847        7.40366        8.09574
H          7.28766        7.94555        8.62553
C          6.82075        6.75419        6.90851
H          7.82827        6.77882        6.52079
C          5.83518        6.06595        6.22496
H          6.07522        5.52868        5.31875
C          3.84121        3.26867        6.23679
C          4.88106        2.99854        7.12066
H          5.33895        3.80289        7.67809
C          5.32382        1.69913        7.29365
H          6.12989        1.49646        7.98340
C          4.73935        0.66197        6.58520
H          5.09215       -0.34970        6.71875
C          3.69990        0.92514        5.70832
H          3.23804        0.12080        5.15563
C          3.24914        2.22124        5.53579
H          2.43896        2.42238        4.85163
C          3.02678        4.36732        3.32459
C          1.68978        4.04170        3.03397
C          1.42194        3.06039        2.08954
H          0.39704        2.78964        1.88434
C          2.43822        2.41580        1.41282
H          2.21063        1.64098        0.69587
C          3.74598        2.79085        1.64586
H          4.54142        2.31177        1.09537
C          4.05673        3.76641        2.58114
C          5.49706        4.17947        2.76527
H          5.50657        5.04234        3.43780
C          6.11281        4.62858        1.43833
H          6.21263        3.79583        0.74682
H          7.10141        5.04896        1.61043
H          5.48966        5.39013        0.97440
C          6.32213        3.05541        3.39499
H          5.90806        2.76803        4.35957
H          7.35108        3.37913        3.54125
H          6.32760        2.17736        2.75320
C          0.53195        4.74062        3.70725
H          0.93043        5.55157        4.33246
C         -0.27031        3.78131        4.59053
H         -0.72111        2.99250        3.99125
H         -1.06396        4.32139        5.10288
H          0.36087        3.32112        5.34802
C         -0.38994        5.38448        2.66783
H          0.17475        6.05558        2.02504
H         -1.16659        5.95801        3.16954
H         -0.87285        4.63217        2.04832
C          0.69069        8.58361        5.70188
H         -0.38573        8.33836        5.70988
H          0.89840        9.03952        4.71725
C          0.97200        9.61370        6.75312
C          0.38194       10.83664        6.89423
C          0.93074       11.56977        7.97707
H          0.59720       12.55489        8.25247
C          1.91760       10.90106        8.62203
H          2.49521       11.21707        9.46732
C         -0.70691       11.33460        6.00052
H         -0.38142       11.31716        4.96056
H         -0.98103       12.35154        6.26816
H         -1.59157       10.70234        6.08134
C          2.65323        7.92241        2.21219
H          3.63183        8.08905        1.72804
H          2.26820        6.99062        1.75996
C          4.60707        9.11223        5.14339
H          4.03640       10.05044        5.25290
H          4.91298        8.85220        6.17139
C         -0.32007        8.95722        1.94801
H         -0.70941        8.30694        1.17107
H         -0.91442        9.86613        1.93309
H         -0.49228        8.46729        2.90160
C          1.69243        9.80220       -0.19544
H          2.70914       10.09275       -0.44296
H          1.04259       10.63099       -0.46050
H          1.42962        8.96362       -0.83345
C          1.94720       10.94935        2.63682
H          2.27085       10.73114        3.65307
H          1.08854       11.61242        2.69306
H          2.74726       11.50296        2.15764
C          5.77926       10.80186        2.77457
H          5.01519       10.41909        2.10499
H          6.66088       11.02645        2.18204
H          5.41584       11.73727        3.18742
C          7.61278       10.23486        5.19709
H          7.35458       11.19625        5.63020
H          8.50762       10.37533        4.59818
H          7.86635        9.56756        6.01559
C          6.81972        7.95369        3.27638
H          7.41127        7.33378        3.94229
H          7.44727        8.20368        2.42669
H          5.98584        7.35443        2.90801
