71
CSD_code = SOYXAF | q = 0 | S = 0 | Stoichiometry = C22H42Cl2Si4Zr | MND = 12
Zr        -0.00109        1.89234        4.66188
Cl         1.55078        0.27423        3.95394
Si        -2.19349        0.21579        2.03378
Si         1.88719        4.33918        2.28681
C         -1.31867        1.78876        2.59331
C         -0.00962        2.15703        2.21381
C          0.30535        3.43515        2.74407
C         -0.85966        3.87985        3.43246
C         -1.83972        2.87317        3.35916
C         -1.12373       -1.32451        2.39745
C         -3.93253        0.11366        2.81675
C         -2.39537        0.35563        0.13495
C          1.90203        4.56106        0.38780
C          3.39135        3.26749        2.80041
C          1.99755        6.07584        3.08329
H          0.62873        1.58798        1.54813
H         -1.00250        4.87385        3.83321
H         -2.86502        2.95205        3.69731
H         -1.51626       -2.19956        1.88830
H         -0.09941       -1.18087        2.06098
H         -1.08982       -1.54913        3.45984
H         -4.44436       -0.78212        2.48092
H         -3.88270        0.07880        3.89990
H         -4.54534        0.96392        2.53237
H         -2.92327       -0.50714       -0.25615
H         -2.95979        1.23975       -0.14225
H         -1.43535        0.40877       -0.36779
H          2.81308        5.05266        0.06096
H          1.84246        3.60495       -0.12277
H          1.06396        5.16332        0.05103
H          3.97151        3.73035        3.59402
H          3.08008        2.27943        3.14086
H          4.06512        3.12175        1.96119
H          2.68506        6.69407        2.51548
H          1.03753        6.58242        3.08620
H          2.36550        6.04566        4.10406
Cl        -1.55544        0.27814        5.37101
C          1.31812        1.78928        6.72941
C          0.00929        2.15733        7.11005
C         -0.30656        3.43512        6.57957
C          0.85797        3.88023        5.89073
C          1.83822        2.87364        5.96292
Si         2.19426        0.21678        7.28826
H         -0.62835        1.58835        7.77647
Si        -1.88777        4.33957        7.03810
H          1.00020        4.87430        5.49000
H          2.86319        2.95258        5.62391
C          1.12219       -1.32288        6.92879
C          3.93140        0.11297        6.50128
C          2.40210        0.35846        9.18633
C         -1.90163        4.56037        8.93728
C         -3.39296        3.26967        6.52399
C         -1.99708        6.07694        6.24310
H          1.50996       -2.19598        7.44530
H          0.09645       -1.17405        7.25928
H          1.09319       -1.55336        5.86731
H          4.44336       -0.78287        6.83673
H          3.87913        0.07723        5.41829
H          4.54544        0.96303        6.78360
H          2.93045       -0.50443        9.57655
H          2.96832        1.24227        9.46085
H          1.44381        0.41304        9.69217
H         -2.81212        5.05240        9.26499
H         -1.84272        3.60384        9.44705
H         -1.06295        5.16159        9.27439
H         -3.97452        3.73436        5.73296
H         -3.08300        2.28261        6.18048
H         -4.06525        3.12166        7.36353
H         -2.68681        6.69419        6.80929
H         -1.03748        6.58424        6.24338
H         -2.36196        6.04731        5.22127
