104
CSD_code = SUFPEQ | q = 0 | S = 0 | Stoichiometry = C32H61N6Si4Y | MND = 5
Y          7.13032       11.32692        3.66617
Si         6.98430       14.77704        2.78339
Si         5.93214        8.18500        4.59701
Si         8.22993       14.16989        5.39623
Si         5.01497       10.41377        6.37043
N          7.40136       13.62547        3.99183
N         10.18158       10.66432        2.43831
C          9.30684       10.47843        1.33616
N          5.69004       10.47861        0.81884
N          3.88231       10.87244        1.90003
C          7.07560       10.38456        0.53044
N          5.95834        9.84301        5.04822
C          6.54073       13.89923        1.14034
H          7.32278       13.20678        0.83916
H          6.42578       14.62876        0.34468
H          5.60736       13.35022        1.21364
C          4.66856       12.28676        6.11461
H          5.31273       12.72004        5.34573
H          4.83781       12.83942        7.03245
H          3.63628       12.46432        5.82964
C          7.37343        7.83017        3.38315
H          7.10587        8.10638        2.36719
H          7.62235        6.77362        3.37520
H          8.27169        8.37942        3.65402
C          5.21992       10.97570        1.99658
C          5.85762       10.13907        8.07554
H          5.85206        9.08493        8.33200
H          5.33317       10.66998        8.86435
H          6.89001       10.47140        8.08733
C          9.73511       10.80428        3.72031
C          8.89152        9.90767       -0.94949
H          9.25629        9.63565       -1.92873
N         10.86065       10.87497        4.45978
C          3.51249       10.33151        0.69855
H          2.49079       10.16187        0.42580
C          7.52992       10.04192       -0.73870
H          6.85159        9.88285       -1.56341
C          7.94368       10.64425        1.59814
C         10.12070       14.37663        5.09734
H         10.49531       13.61878        4.41618
H         10.69429       14.31793        6.01737
H         10.32668       15.34098        4.64701
C          7.99571       12.86957        6.78822
H          7.13540       13.11793        7.39835
H          8.85269       12.83544        7.45484
H          7.82440       11.87163        6.37755
C          6.10604        6.96142        6.05976
H          6.93343        7.23293        6.70547
H          6.26712        5.94298        5.72061
H          5.20713        6.96640        6.66561
C          4.34640        7.64362        3.65191
H          3.45733        7.81032        4.24895
H          4.37978        6.58779        3.40144
H          4.22991        8.19463        2.72359
C          8.37723       16.00891        2.32350
H          8.63870       16.63016        3.17267
H          8.07918       16.66755        1.51367
H          9.27586       15.48670        2.01156
C          9.78914       10.10370        0.08506
H         10.84213        9.95479       -0.10047
C          4.65443       10.08018        0.01477
H          4.78470        9.64282       -0.95260
C          3.28931        9.60340        6.59269
H          2.66073        9.70483        5.71382
H          2.75497       10.04453        7.42850
H          3.39390        8.54370        6.79513
C         11.55142       10.65921        2.39814
H         12.12083       10.58177        1.49620
C         11.97955       10.78940        3.67522
H         12.97174       10.83423        4.07567
C          5.46318       15.84857        3.27190
H          4.80431       15.31740        3.95113
H          4.88005       16.14357        2.40485
H          5.78004       16.75487        3.77585
C          7.63153       15.82538        6.14222
H          7.82822       16.64843        5.46486
H          8.12997       16.04462        7.08140
H          6.56362       15.80637        6.33004
C          2.97080       11.32502        2.91939
H          3.35368       10.98478        3.88532
H          1.99451       10.86971        2.73812
C          2.86723       12.85388        2.92789
H          2.22113       13.15163        3.75521
H          3.86687       13.25443        3.11153
C         10.90481       10.94711        5.89698
H          9.95860       11.36693        6.23569
H         11.71850       11.61835        6.18770
C          2.32274       13.44359        1.62613
H          2.90743       13.07168        0.78161
H          2.45787       14.52602        1.66048
C         11.11467        9.56993        6.53484
H         12.07583        9.15662        6.21752
H         11.15154        9.70363        7.61761
C          9.99730        8.59192        6.17812
H         10.04209        8.36593        5.11117
H          9.02558        9.05344        6.37345
C         10.11557        7.29267        6.96468
H          9.33238        6.60127        6.66633
H         10.02155        7.47982        8.03220
H         11.07893        6.81926        6.78415
C          0.84553       13.14002        1.39955
H          0.49282       13.63408        0.49728
H          0.25156       13.49663        2.23819
H          0.67020       12.07291        1.28674
