53
CSD_code = SUPQID | q = 0 | S = 0 | Stoichiometry = C19H24NO5PSi2W | MND = 6
W          2.14915        1.66233        1.69233
P          1.13106        3.10564        3.40471
Si         1.98382        5.99212        3.84262
Si        -1.24047        5.09337        3.61069
O          3.37338       -0.23854       -0.46690
O          2.77607        4.19341       -0.05959
O          1.31754       -0.68737        3.60222
O         -0.59488        1.39298        0.19123
O          4.93578        1.73684        3.14388
N          1.54564        2.92718        5.10510
C          0.39000        2.42333        4.86066
C          0.60298        4.83594        3.15445
H          0.65255        4.93033        2.06323
C         -0.61708        1.65521        5.51343
C         -0.66397        1.59044        6.90908
H          0.05872        2.14770        7.48526
C         -1.62957        0.82097        7.52610
H         -1.67091        0.77189        8.60388
C         -2.54134        0.10424        6.76456
H         -3.29162       -0.49978        7.25254
C         -2.49036        0.15500        5.37950
H         -3.19593       -0.41216        4.79136
C         -1.53792        0.93277        4.75192
H         -1.48031        0.97317        3.67316
C          1.69216        6.34297        5.69151
H          1.72632        5.42405        6.26829
H          0.73256        6.81822        5.86755
H          2.46258        7.00203        6.07860
C          3.65955        5.12212        3.60147
H          3.81492        4.83879        2.56285
H          3.70348        4.21765        4.20240
H          4.49208        5.75432        3.89600
C          1.95154        7.60675        2.83146
H          2.11109        7.41930        1.77453
H          2.73685        8.27534        3.16655
H          1.00846        8.13097        2.93513
C         -1.61928        4.81280        5.46352
H         -0.71861        4.66504        6.04855
H         -2.25423        3.94459        5.61362
H         -2.14031        5.67027        5.87784
C         -2.20598        3.85008        2.52828
H         -3.16163        3.57753        2.96595
H         -1.63163        2.93691        2.38741
H         -2.40390        4.25867        1.54164
C         -1.75252        6.86935        3.14959
H         -1.46675        7.12206        2.13408
H         -1.30002        7.59902        3.81279
H         -2.82893        6.98210        3.22504
C          2.93295        0.46134        0.32267
C          2.57625        3.26139        0.57287
C          1.64998        0.13445        2.87939
C          0.39485        1.51834        0.75195
C          3.92194        1.74566        2.62275
