82
CSD_code = TAHRIG | q = 0 | S = 0 | Stoichiometry = C34H45NSiTi | MND = 6
Ti        -0.38869       13.11329        3.63822
Si         2.09962       12.33005        2.59429
N          1.41067       12.85589        4.11307
C          0.40712       15.02813        1.06607
C         -0.38465       16.10484        0.69767
C         -1.78757       15.95766        0.61755
C         -2.35229       14.71137        0.84417
C         -3.08093       11.53487        1.42991
C         -3.06805       10.17951        1.68575
C         -1.86662        9.51859        1.96422
C         -0.66449       10.19019        1.99751
C          0.44997       12.50997        1.68002
C         -0.14850       13.77019        1.32939
C         -1.56840       13.62061        1.19998
C         -1.88040       12.24240        1.46063
C         -0.63801       11.57289        1.74756
C          0.31331       17.42586        0.41629
C         -0.62918       18.40604       -0.29040
C         -1.99899       18.45096        0.36189
C         -2.72326       17.10334        0.27023
C          0.79515       18.01340        1.75030
C          1.52945       17.22161       -0.50092
C         -3.90368       17.15287        1.25401
C         -3.26934       16.89138       -1.14910
C          2.15372       13.06578        5.34063
C          2.88835       11.77305        5.72901
C          1.19397       13.42260        6.49533
C          3.09844       14.25034        5.16591
C          2.59317       15.40008        4.56430
C          3.38569       16.52102        4.40282
C          4.70442       16.50862        4.82812
C          5.21672       15.36972        5.42037
C          4.41819       14.25053        5.59474
C          3.53675       13.41822        1.92897
C          2.79643       10.53738        2.54718
C         -1.29465       14.88368        4.20492
C         -1.45530       11.83123        4.85573
H          1.48071       15.13844        1.11543
H         -3.41921       14.57254        0.74200
H         -4.00843       12.04190        1.19759
H         -3.98965        9.61633        1.66199
H         -1.88777        8.45329        2.14791
H          0.25418        9.65109        2.18216
H         -0.18259       19.40343       -0.27899
H         -0.73424       18.10667       -1.33480
H         -2.61059       19.21938       -0.11717
H         -1.89210       18.72801        1.41242
H          1.31350       18.95633        1.58503
H          1.47768       17.32000        2.23562
H         -0.03933       18.19105        2.42478
H          1.25433       16.62700       -1.36934
H          2.34748       16.72330        0.01141
H          1.89307       18.18819       -0.84540
H         -3.54471       17.11797        2.28093
H         -4.59304       16.32707        1.10327
H         -4.45904       18.07866        1.11406
H         -3.96153       17.68950       -1.41138
H         -3.79571       15.94245       -1.21753
H         -2.46285       16.87722       -1.87783
H          3.69149       11.56446        5.02900
H          2.17371       10.95248        5.69306
H          3.29248       11.83864        6.73617
H          1.76799       13.62848        7.39790
H          0.52002       12.58617        6.68375
H          0.61065       14.30889        6.24031
H          1.56278       15.39234        4.21259
H          2.97917       17.41271        3.94784
H          5.32579       17.38220        4.69766
H          6.24420       15.34973        5.75405
H          4.84201       13.37994        6.06929
H          4.46975       13.13443        2.40559
H          3.38697       14.47297        2.13267
H          3.66409       13.29245        0.85873
H          3.85587       10.52857        2.78256
H          2.68546       10.10594        1.55748
H          2.29788        9.88419        3.25641
H         -1.27758       15.16648        5.26678
H         -2.35781       14.78733        3.92702
H         -0.89838       15.73777        3.63593
H         -1.75659       12.23412        5.83239
H         -0.88806       10.90676        5.03646
H         -2.37832       11.54688        4.32863
