74
CSD_code = TAHYOT | q = 0 | S = 0 | Stoichiometry = C24H39ClN6Si3Zr | MND = 7
Zr         9.38792       16.26296        4.74845
Si         8.18365       13.21157        5.81137
Cl         9.38946       16.26351        7.12553
N          7.66368       16.13123        3.22831
N          8.01984       14.64086        4.86812
C          6.97833       16.60372        2.19115
H          7.35690       17.52639        1.76014
C          5.85924       15.98513        1.67666
H          5.33248       16.40282        0.83445
C          5.42577       14.80114        2.28418
H          4.54798       14.29389        1.90901
C          6.11128       14.29161        3.35509
H          5.79824       13.39062        3.85546
C          7.25583       14.97599        3.83572
C          7.27792       13.41166        7.48637
H          7.67485       14.26618        8.02742
H          7.40700       12.53207        8.10822
H          6.21082       13.56670        7.35246
C         10.07717       13.03557        6.05309
H         10.56010       12.64573        5.15857
H         10.30936       12.35817        6.86860
H         10.52448       14.00369        6.28670
C          7.57539       11.60088        4.96081
H          6.50504       11.46238        5.07161
H          8.05741       10.73603        5.40358
H          7.80492       11.59747        3.89941
Si        12.63383       16.74558        5.80953
N         10.36350       14.83467        3.22851
N         11.47692       15.89000        4.86668
C         10.29614       14.00231        2.19349
H          9.30782       13.86933        1.76229
C         11.39062       13.33950        1.68111
H         11.29161       12.67243        0.84055
C         12.63283       13.55591        2.28847
H         13.51046       13.04722        1.91479
C         12.73223       14.40705        3.35713
H         13.66912       14.58642        3.85735
C         11.56799       15.05878        3.83584
C         12.91513       15.86016        7.48374
H         11.97717       15.77647        8.02570
H         13.61305       16.41128        8.10521
H         13.31413       14.85853        7.34882
C         11.83994       18.47330        6.05319
H         11.93544       19.08718        5.15910
H         12.31125       19.01232        6.86876
H         10.77805       18.37658        6.28759
C         14.33170       17.02423        4.95669
H         14.98718       16.16677        5.06700
H         14.84006       17.87446        5.39832
H         14.21839       17.22413        3.89532
Si         7.34918       18.83320        5.81164
N         10.13699       17.82220        3.22832
N          8.66744       18.25870        4.86746
C         10.89199       18.18045        2.19376
H         11.50009       17.39073        1.76138
C         10.92080       19.46046        1.68339
H         11.54848       19.70857        0.84329
C         10.11373       20.42836        2.29216
H         10.11717       21.44334        1.92013
C          9.32645       20.08848        3.36037
H          8.70375       20.81034        3.86170
C          9.34229       18.75364        3.83720
C          7.97654       19.51830        7.48591
H          8.51774       18.74728        8.02733
H          7.15078       19.84747        8.10784
H          8.64498       20.36429        7.35104
C          6.24966       17.28180        6.05428
H          5.67052       17.05819        5.15986
H          5.54699       17.41987        6.86978
H          6.86428       16.41030        6.28814
C          6.25946       20.16571        4.96037
H          6.67506       21.16173        5.07134
H          5.26918       20.18118        5.40244
H          6.14242       19.96865        3.89889
