82
CSD_code = TAZPEQ | q = 1 | S = 0 | Stoichiometry = C22H52N3P2RuSi2(1+) | MND = 5
Ru         2.23861        2.72978        2.45082
P          3.25219        2.81035        0.35496
P          1.51325        2.52172        4.66625
Si         3.40469       -0.15177        1.14405
Si         2.95237       -0.25790        4.24582
N          3.24024        0.65976        2.73198
H          4.11429        1.16647        2.88746
N          1.45501        4.28242        2.21109
N          0.91686        5.25032        2.03945
C          1.67654       -0.64633        0.52099
H          1.20511       -1.38263        1.16294
H          1.75614       -1.09163       -0.46617
H          1.00763        0.20703        0.43773
C          4.60635       -1.61486        1.23978
H          4.21671       -2.40663        1.86841
H          5.57998       -1.33272        1.62797
H          4.76076       -2.03484        0.25235
C          4.15246        1.22802        0.05066
H          5.21057        1.36224        0.26284
H          4.07249        0.95867       -0.99871
C          4.53617        3.97542        1.14667
C          4.12080        3.69953        2.60167
H          4.05913        4.63165        3.17425
H          4.84787        3.04242        3.10239
C          6.00660        3.67109        0.86257
H          6.62147        4.45449        1.30291
H          6.20461        3.65205       -0.20747
H          6.32852        2.72644        1.29782
C          4.26470        5.44070        0.80516
H          4.86449        6.07555        1.45642
H          3.21900        5.69628        0.96360
H          4.54222        5.66813       -0.22088
C          2.67164        3.32754       -1.36727
C          3.84503        3.48991       -2.32766
H          3.46950        3.74982       -3.31583
H          4.42437        2.57398       -2.42221
H          4.50955        4.28661       -2.00264
C          1.85474        4.61845       -1.29053
H          1.29786        4.74719       -2.21707
H          2.48159        5.49362       -1.16188
H          1.13539        4.57893       -0.47231
C          1.72719        2.21482       -1.83409
H          1.32272        2.46812       -2.81224
H          0.89058        2.11809       -1.14140
H          2.22251        1.25098       -1.92181
C          4.65102       -0.81217        4.89815
H          5.10336       -1.55264        4.24751
H          4.54768       -1.26902        5.87661
H          5.35408        0.01058        5.00018
C          1.83364       -1.77516        4.00169
H          2.25262       -2.44447        3.25857
H          0.80977       -1.56201        3.71381
H          1.79419       -2.32391        4.93745
C          2.24283        1.03482        5.46934
H          1.53302        0.60013        6.16976
H          3.08524        1.39979        6.05501
C         -0.28067        2.00054        4.31437
C         -1.19233        3.22044        4.16999
H         -2.14689        2.91270        3.74386
H         -0.75717        3.96779        3.50612
H         -1.39882        3.67875        5.13303
C         -0.89716        1.02216        5.31227
H         -1.93921        0.85036        5.04596
H         -0.87676        1.41856        6.32367
H         -0.39101        0.05981        5.30063
C         -0.16972        1.32194        2.93724
H         -1.15749        1.02335        2.58425
H          0.45424        0.43011        2.99291
H          0.24945        2.02167        2.17509
C          1.64746        3.83121        6.02179
C          0.80924        3.50869        7.25445
H          1.03431        4.22996        8.03826
H          1.03516        2.51641        7.64027
H         -0.25470        3.57330        7.04289
C          3.13320        3.90303        6.40165
H          3.34160        4.85995        6.87507
H          3.76100        3.82432        5.51274
H          3.41329        3.12587        7.10880
C          1.25743        5.18926        5.43699
H          1.43132        5.96783        6.17736
H          0.21182        5.23487        5.15255
H          1.86697        5.41322        4.56196
