59
CSD_code = TEDYOR | q = 0 | S = 0 | Stoichiometry = C22H34Si2Zr | MND = 14
Zr         5.82105        4.91679        5.42574
Si         3.95258        8.33753        5.76849
Si         3.71762        1.62846        5.04735
C          4.35031        6.75334        4.83876
C          3.63638        5.58316        5.21022
C          3.59330        4.40088        5.59291
C          4.21161        3.18337        5.98007
C          5.55147        9.40155        5.88303
C          2.65511        9.45278        4.89857
C          3.23976        7.91266        7.49882
C          3.08162        2.09321        3.29761
C          2.31772        0.62289        5.89201
C          5.23024        0.44215        4.97797
C          6.89859        5.69606        3.28145
C          5.86920        4.79521        2.91636
C          6.21216        3.51204        3.39411
C          7.45498        3.61160        4.05878
C          7.88386        4.95608        3.96942
C          7.01692        7.14764        2.89566
C          6.80380        4.05969        7.58485
C          7.84981        4.73588        6.92159
C          7.51253        6.10595        6.83091
C          6.26569        6.28480        7.47112
C          5.82894        5.02507        7.93454
C          6.81623        2.60049        7.95968
H          4.31524        6.92327        3.75319
H          4.14334        3.01971        7.06507
H          6.45144        8.80016        5.98940
H          5.66644       10.01294        4.99298
H          5.50724       10.07979        6.72960
H          2.48219       10.36784        5.45697
H          2.98406        9.73649        3.90321
H          1.70058        8.94545        4.79453
H          3.75875        8.42609        8.30255
H          2.19319        8.19422        7.56178
H          3.30047        6.84304        7.68874
H          2.01834        1.89261        3.21110
H          3.22887        3.15326        3.10213
H          3.57840        1.53456        2.51035
H          1.40429        1.20453        5.97424
H          2.08471       -0.27819        5.33269
H          2.60212        0.31852        6.89501
H          5.30467       -0.13257        5.89650
H          5.12583       -0.27087        4.16571
H          6.17331        0.96547        4.83826
H          6.86970        7.80715        3.75571
H          8.00673        7.34483        2.48145
H          6.27787        7.40158        2.13751
H          6.05711        2.39414        8.71251
H          6.62618        1.96019        7.09337
H          7.78741        2.32985        8.37639
H          5.03058        5.01969        2.26792
H          5.71056        2.59377        3.13387
H          8.05113        2.77889        4.41663
H          8.85943        5.33318        4.25183
H          8.80405        4.29679        6.65669
H          8.17023        6.89868        6.49057
H          5.82151        7.23336        7.72684
H          4.96445        4.85396        8.56505
