82
CSD_code = TEGCAJ | q = -1 | S = 0 | Stoichiometry = C18H54FeN3Si6(1-) | MND = 3
Fe         3.02613       10.06396        4.86898
Si         5.07862        7.39748        4.23754
Si         5.75144       10.35574        4.18020
Si         1.85132       11.25862        2.32690
Si         1.58722       12.73953        5.02095
Si         3.66294        8.73093        7.96109
Si         1.12163        8.54995        6.31495
N          4.73011        9.03636        4.52491
N          2.08770       11.45799        4.00750
N          2.76338        8.94841        6.53502
C          3.54044        6.29315        4.43571
C          6.45937        6.68394        5.37352
C          5.74322        7.08291        2.45438
C          5.89376       10.88037        2.33132
C          5.08692       11.85857        5.13443
C          7.59810       10.08279        4.66048
C          0.01828       11.19970        1.73412
C          2.69237        9.63006        1.81227
C          2.57664       12.73206        1.32112
C          2.12827       12.32000        6.79725
C          2.28086       14.48203        4.57694
C         -0.31842       13.00859        4.95161
C          5.34632        9.61794        7.89156
C          2.75695        9.41657        9.51985
C          3.99500        6.88588        8.39911
C         -0.17122        9.72979        7.12200
C          0.77840        8.54558        4.44593
C          0.60785        6.84027        7.04211
H          2.89916        6.33570        3.56267
H          2.97194        6.64484        5.28454
H          3.80457        5.25240        4.60083
H          7.43467        7.06372        5.08676
H          6.50481        5.59851        5.33279
H          6.28734        6.97272        6.40354
H          6.68211        7.60501        2.30123
H          5.04425        7.44163        1.70647
H          5.91853        6.02744        2.26538
H          6.16853       10.03684        1.70740
H          6.64548       11.65228        2.18835
H          4.94836       11.26345        1.96956
H          4.41124       12.42330        4.50644
H          5.86528       12.52513        5.48921
H          4.52524       11.49731        5.98572
H          8.03735        9.30945        4.03970
H          7.70331        9.77138        5.69276
H          8.18569       10.98634        4.52491
H         -0.51915       12.08769        2.04992
H         -0.50570       10.33963        2.13702
H         -0.04452       11.14509        0.65060
H          3.35258        9.30299        2.61243
H          3.28267        9.73598        0.90838
H          1.96342        8.84814        1.63346
H          1.87883       13.56342        1.29854
H          2.78686       12.45405        0.29237
H          3.49854       13.09340        1.76262
H          2.99076       12.90425        7.09620
H          2.39682       11.26713        6.84733
H          1.34405       12.50421        7.52376
H          2.03203       14.74861        3.55513
H          3.36088       14.51908        4.67084
H          1.86786       15.24870        5.22701
H         -0.59180       13.60825        4.08890
H         -0.68609       13.52156        5.83563
H         -0.84583       12.06471        4.87183
H          5.25058       10.67949        8.08967
H          5.75738        9.49939        6.89940
H          6.05091        9.21032        8.61102
H          1.82844        8.88021        9.68652
H          2.51090       10.46623        9.40012
H          3.36029        9.31768       10.41800
H          3.09405        6.40358        8.76438
H          4.75919        6.77648        9.16455
H          4.32203        6.34248        7.52062
H          0.03652        9.87120        8.17704
H         -1.18174        9.33871        7.03657
H         -0.14846       10.70301        6.64878
H          1.71073        8.35570        3.93084
H          0.42031        9.51792        4.13598
H          0.05414        7.79874        4.14033
H          0.67011        6.85825        8.12477
H          1.25308        6.04375        6.69157
H         -0.41307        6.58157        6.77590
