47
CSD_code = TEHTEF | q = 0 | S = 0 | Stoichiometry = C16H26I2Si2Ti | MND = 12
I          0.22544        8.41462        7.43332
Ti        -0.23049        6.40399        5.59224
Si        -1.69683        5.40453        9.05193
C         -2.51289        6.91089        9.87788
H         -3.53086        7.05300        9.52635
H         -1.96490        7.82975        9.69673
H         -2.55769        6.76495       10.95240
C          0.09214        5.12060        9.66390
H          0.77751        5.89370        9.32721
H          0.47989        4.15696        9.34207
H          0.11411        5.12522       10.74910
C         -2.71670        3.83405        9.43837
H         -2.26731        2.93898        9.01916
H         -3.72660        3.90773        9.04730
H         -2.78995        3.68978       10.51075
C         -1.76439        5.56267        7.16433
C         -1.48322        4.50937        6.26322
H         -1.08780        3.54294        6.54843
C         -1.95477        4.85651        4.97946
H         -1.97256        4.21455        4.10771
C         -2.59126        6.11041        5.08466
H         -3.16567        6.59704        4.30634
C         -2.45182        6.55787        6.41069
H         -2.89698        7.45964        6.81681
I         -0.68678        8.41445        3.75119
C          1.30340        5.56267        4.02016
Si         1.23591        5.40447        2.13257
C          2.05199        6.91083        1.30663
H          3.06997        7.05291        1.65814
H          1.50403        7.82967        1.48787
H          2.09676        6.76497        0.23210
C         -0.55304        5.12056        1.52054
H         -1.23838        5.89372        1.85716
H         -0.94087        4.15696        1.84239
H         -0.57497        5.12513        0.43534
C          2.25581        3.83396        1.74624
H          1.80492        2.93860        2.16421
H          3.26546        3.90720        2.13918
H          2.33043        3.69087        0.67337
C          1.02230        4.50937        4.92128
C          1.49385        4.85653        6.20503
H          0.62694        3.54291        4.63608
H          1.51165        4.21459        7.07680
C          2.13030        6.11044        6.09981
C          1.99081        6.55791        4.77379
H          2.70466        6.59712        6.87813
H          2.43593        7.45969        4.36766
