79
CSD_code = TESNUD | q = -1 | S = 0 | Stoichiometry = C26H42Cl2NO6RuSi(1-) | MND = 6
Ru        -4.22509        2.97284        6.95784
Cl        -5.71410        4.21210        5.56099
Cl        -5.17630        0.90438        6.29331
Si         1.87618        3.07459        7.15291
O         -3.01421        5.56023        7.83497
O         -2.49754        2.68138        4.54015
O         -5.70125        3.09195        8.39968
O          2.46326        2.87916        8.66117
O          2.96523        2.79507        5.95563
O          1.53683        4.65194        7.01443
N         -3.15595        1.76190        8.28499
C         -3.49179        4.55921        7.52608
C         -3.12252        2.80579        5.49618
C         -5.81272        2.55143        9.53797
C         -4.78833        1.73835       10.12109
C         -4.96089        1.20282       11.41412
H         -4.15375        0.59905       11.80286
C         -6.08802        1.43248       12.15319
C         -7.10431        2.21020       11.55961
H         -8.00118        2.37407       12.13475
C         -7.01561        2.75493       10.30904
C         -8.14354        3.56789        9.68683
C         -8.59970        2.88282        8.39121
H         -8.93238        1.86596        8.59630
H         -7.78708        2.84236        7.67195
H         -9.42151        3.43786        7.94167
C         -9.36188        3.69093       10.61071
H         -9.77843        2.71328       10.84698
H        -10.13395        4.27018       10.10654
H         -9.10730        4.20606       11.53583
C         -7.64347        4.98537        9.37313
H         -8.45990        5.59269        8.98581
H         -6.85923        4.95270        8.62229
H         -7.25057        5.45862       10.27289
C         -6.30144        0.89349       13.56037
C         -7.54372       -0.00839       13.57931
H         -7.69941       -0.42097       14.57562
H         -7.41745       -0.83072       12.87826
H         -8.43555        0.54345       13.29583
C         -6.50104        2.06999       14.52690
H         -5.62821        2.71958       14.50860
H         -6.64325        1.70731       15.54435
H         -7.36905        2.66240       14.25126
C         -5.11114        0.06884       14.05924
H         -4.20533        0.67029       14.08507
H         -4.94442       -0.79631       13.42183
H         -5.30979       -0.28802       15.06929
C         -3.58927        1.39350        9.44253
H         -2.95443        0.69305        9.99983
C         -1.89955        1.21511        7.83147
H         -1.60993        0.35208        8.44883
H         -2.03433        0.86637        6.80179
C         -0.78477        2.26731        7.87744
H         -0.49994        2.44943        8.91508
H         -1.17421        3.20269        7.46995
C          0.43875        1.83291        7.07581
H          0.13596        1.68119        6.03834
H          0.77127        0.86102        7.44529
C          3.11423        3.82571        9.47243
H          2.55241        4.76399        9.44761
H          3.09598        3.42267       10.49110
C          4.54741        4.07104        9.02181
H          5.11446        3.14401        9.05729
H          5.02236        4.80602        9.66684
H          4.53982        4.43672        7.99890
C          3.47968        1.56805        5.51014
H          2.65291        0.89624        5.25284
H          4.05041        1.78550        4.60021
C          4.37390        0.90735        6.55007
H          5.21414        1.55640        6.78259
H          4.74732       -0.04196        6.17456
H          3.80419        0.74127        7.45984
C          1.20764        5.40480        5.86979
H          1.91561        5.16446        5.06940
H          1.33745        6.45402        6.15717
C         -0.21662        5.16234        5.39818
H         -0.34065        4.12667        5.09640
H         -0.44063        5.80507        4.55118
H         -0.92269        5.37840        6.19528
