56
CSD_code = TEYXEA | q = 0 | S = 0 | Stoichiometry = C22H30Cl2SiZr | MND = 12
Zr        -0.36496        3.12176        6.14621
Cl         0.92256        3.47436        4.22201
Cl        -0.09238        0.80690        6.35195
Si        -2.07167        5.25294        8.02142
C         -0.28971        4.65723        8.05651
C         -0.10607        3.37465        8.63876
C          1.13879        2.86822        8.22256
C          1.72621        3.80229        7.33126
C          0.83671        4.90131        7.21156
C          3.09790        3.68480        6.71637
C          4.15978        4.14633        7.72219
C          3.37081        2.24429        6.27065
C         -1.06738        2.75966        9.61914
C         -1.78431        3.82981       10.45042
C         -2.82537        4.62081        9.65685
C         -2.53114        4.20162        6.53302
C         -2.10423        4.72727        5.28417
C         -2.10977        3.68827        4.33582
C         -2.48715        2.48763        4.98992
C         -2.73056        2.79795        6.35297
C         -2.69812        1.15395        4.31899
C         -4.08285        1.11849        3.66055
C         -1.60293        0.88928        3.28042
C         -1.81756        6.18512        5.04766
C         -2.67788        7.08005        5.94709
C         -2.25282        7.05390        7.41601
H          1.59674        1.95467        8.57910
H          1.06905        5.83305        6.70398
H         -1.92578        3.80358        3.27551
H         -3.16237        2.11257        7.07656
H          3.14467        4.33887        5.83523
H          5.15232        4.07842        7.28331
H          3.98031        5.17702        8.01936
H          4.12953        3.52232        8.61265
H          4.29344        2.19897        5.69607
H          3.47548        1.58760        7.13225
H          2.55478        1.87250        5.64462
H         -2.65425        0.36575        5.08258
H         -4.86091        1.28911        4.40102
H         -4.15668        1.89343        2.90075
H         -4.25500        0.15316        3.19064
H         -0.61124        1.01837        3.72316
H         -1.68212       -0.12857        2.90450
H         -1.69863        1.57047        2.43692
H         -0.51544        2.09418       10.28916
H         -1.81401        2.14345        9.09867
H         -1.03357        4.51875       10.84169
H         -2.27253        3.35060       11.30257
H         -3.68521        3.98256        9.45365
H         -3.18614        5.44372       10.27031
H         -0.75565        6.40738        5.22346
H         -2.02419        6.42302        4.00020
H         -2.62863        8.10764        5.57857
H         -3.71470        6.74803        5.86862
H         -1.30747        7.58494        7.52709
H         -2.98728        7.59816        8.00592
