120
CSD_code = TEZTAV | q = 0 | S = 0 | Stoichiometry = C45H69NOPSi2Y | MND = 7
C         10.80818       11.45660       16.81977
C         11.62939       11.19416       18.06511
H         12.70236       11.11266       17.85170
C         11.10360        9.85833       18.51785
C         10.13000        9.43050       17.69777
C          9.88588       10.42282       16.64160
C          8.87134       10.30024       15.66824
H          8.45113       11.24640       15.33223
H          8.10553        9.56128       15.89045
C          9.35565        8.15643       17.77103
H          9.76841        7.48853       18.52233
H          9.37622        7.65596       16.80182
H          8.31553        8.35777       18.02828
C         11.65178        9.20450       19.73962
H         11.19717        9.62988       20.63570
H         12.72730        9.36284       19.80271
H         11.45607        8.13518       19.73740
C         11.44900       12.28483       19.12604
H         10.40275       12.35548       19.41566
H         11.76729       13.24646       18.72783
H         12.04215       12.06203       20.01039
C         13.01906       13.05387       16.04847
C         13.92188       12.00663       15.88249
H         13.55711       11.05667       15.51505
C         15.25903       12.16844       16.18904
H         15.94756       11.34690       16.05264
C         15.71132       13.38311       16.67996
H         16.75569       13.51613       16.92142
C         14.81759       14.42228       16.87047
H         15.16325       15.36663       17.26607
C         13.47686       14.25972       16.56171
H         12.79010       15.07673       16.73021
C         10.46583       14.31327       15.96267
C          9.45127       14.42775       16.90280
H          9.15754       13.54814       17.45977
C          8.83883       15.64853       17.12057
H          8.05570       15.73703       17.85960
C          9.23208       16.75944       16.39185
H          8.75711       17.71441       16.56351
C         10.23006       16.64568       15.43635
H         10.52950       17.50968       14.86029
C         10.84529       15.42589       15.21862
H         11.62492       15.33246       14.47424
C         10.95022       13.13846       13.07758
C          9.75981       13.80504       12.72174
C          9.75732       14.66751       11.63493
H          8.84478       15.17340       11.35980
C         10.90156       14.89247       10.89369
H         10.88291       15.57202       10.05438
C         12.06610       14.23272       11.23478
H         12.96064       14.40379       10.65337
C         12.11068       13.36340       12.31397
C         13.40547       12.66319       12.64525
H         13.23970       12.07260       13.54862
C         14.52754       13.66407       12.92510
H         14.78105       14.23148       12.03241
H         15.41986       13.14055       13.26260
H         14.23171       14.36367       13.70444
C         13.80459       11.69516       11.53001
H         13.00796       10.97088       11.37345
H         14.71251       11.16150       11.80576
H         13.99156       12.22651       10.59852
C          8.47149       13.53382       13.46110
H          8.73131       13.16035       14.45755
C          7.59670       14.77405       13.64336
H          8.18644       15.61125       14.00717
H          6.81320       14.56631       14.36934
H          7.11813       15.06209       12.71017
C          7.68812       12.44454       12.72078
H          7.44889       12.77654       11.71107
H          6.75562       12.22796       13.23888
H          8.27888       11.52181       12.65693
C          8.87412        7.89858       12.83853
H          9.41694        7.42015       12.01312
H          8.87269        7.15681       13.65009
C          6.02840        8.93683       13.66231
H          5.98200        8.30827       14.54633
H          5.00859        9.09680       13.32517
H          6.43170        9.89874       13.96255
C          6.20040        6.45859       11.87404
H          6.70007        5.94084       11.06056
H          5.16737        6.61389       11.57689
H          6.19672        5.78948       12.72916
C          6.94417        9.17704       10.70832
H          7.28298       10.19426       10.87403
H          5.91504        9.22731       10.36655
H          7.53207        8.75328        9.89973
C         12.44763        8.89074       14.17834
H         13.18842        9.44466       13.58775
H         12.59564        9.18446       15.22793
C         14.61050        6.56809       14.58986
H         15.34823        7.04655       13.95262
H         14.77358        5.49631       14.52946
H         14.81614        6.87272       15.61147
C         11.63900        6.09791       15.23153
H         11.75610        6.42999       16.25854
H         11.82807        5.02932       15.20839
H         10.60172        6.25620       14.94826
C         12.61134        6.39629       12.28108
H         11.58944        6.51447       11.93338
H         12.85662        5.34069       12.22174
H         13.26599        6.91835       11.58891
C         10.07021       11.31385       10.06070
H          9.97046       12.24048       10.62321
H          9.09009       11.00355        9.67385
C         11.08815       11.40505        8.91932
H         11.84485       12.14993        9.15797
H         10.61105       11.68352        7.98269
C         11.69793        9.99423        8.87497
H         11.46635        9.47664        7.94680
H         12.77987       10.03381        8.98318
C         11.05224        9.28152       10.07483
H         11.74866        8.66446       10.64467
H         10.20544        8.66491        9.74397
N         10.95703       12.20918       14.14115
O         10.57109       10.31042       10.93734
P         11.25535       12.68167       15.64990
Si         7.08629        8.11083       12.29616
Si        12.82428        7.05301       14.07095
Y         10.25980        9.69611       13.65041
