103
CSD_code = TIFHAR | q = 0 | S = 0 | Stoichiometry = C42H40BF15N2Si2Ti | MND = 8
Ti         6.06527        5.31439       10.83937
Si         4.07858        7.48579       11.04884
Si         8.42038        4.98933       12.65136
N          5.08147        6.65649        9.85421
N          8.03330        5.36249       10.97348
C          4.71116        6.35325       12.41908
C          6.08854        6.48845       12.73595
H          6.62012        7.43121       12.79953
C          6.61428        5.22544       13.13356
C          5.55842        4.30349       13.02397
H          5.60857        3.27424       13.35227
C          4.40136        4.98401       12.58635
H          3.40472        4.56682       12.52376
C          4.98741        7.03335        8.43695
C          8.98661        6.13680       10.18001
C          2.16978        7.46249       11.05697
H          1.74108        8.12172       10.31195
H          1.81422        7.79218       12.02868
H          1.77201        6.46921       10.88764
C          4.64635        9.29676       11.35150
H          5.72720        9.40517       11.31967
H          4.30969        9.63575       12.32536
H          4.22432        9.97300       10.61541
C          3.63566        7.68023        8.09949
H          2.81537        7.05040        8.41349
H          3.56364        7.83041        7.02472
H          3.54273        8.64709        8.58380
C          5.12413        5.79042        7.53965
H          6.02374        5.22130        7.77937
H          5.17857        6.09005        6.49511
H          4.25424        5.14654        7.65705
C          6.05824        8.07712        8.06173
H          5.98037        8.93137        8.72990
H          5.88798        8.42227        7.04450
H          7.06257        7.67447        8.12119
C          9.17511        3.27134       12.99527
H          8.41259        2.51109       13.10977
H          9.74940        3.30306       13.91396
H          9.84026        2.95473       12.20037
C          9.41615        6.20459       13.76405
H         10.48412        6.01887       13.71460
H          9.11781        6.06199       14.79921
H          9.24866        7.25063       13.52802
C          8.86083        5.82147        8.68208
H          9.32021        4.86018        8.46855
H          9.37392        6.57910        8.09264
H          7.81159        5.79182        8.39474
C         10.44586        5.83873       10.55333
H         10.69240        6.21762       11.53685
H         11.10900        6.30907        9.83085
H         10.61897        4.76607       10.53625
C          8.69253        7.63145       10.42329
H          7.61611        7.80317       10.32732
H          9.23163        8.25804        9.71644
H          9.00019        7.90766       11.42828
B          3.87528        0.95308       10.06293
F          3.34781       -2.04014        9.69690
F          1.65123       -3.48162       11.14213
F          0.11718       -2.31248       13.08213
F          0.33755        0.38901       13.50828
F          2.05666        1.84570       12.07371
F          4.61506        1.62481        7.24841
F          6.53586        0.45196        5.82714
F          8.00665       -1.60125        6.89078
F          7.50075       -2.41252        9.45616
F          5.57346       -1.23018       10.89230
F          3.55234        4.08703        9.97329
F          1.51424        5.28134        8.76577
F         -0.23581        3.91428        7.19735
F          0.07914        1.19725        6.90400
F          2.03406       -0.06784        8.19163
C          4.79240        1.76061       11.20333
H          4.24419        2.63569       11.52953
H          4.90662        1.10798       12.06881
C          6.14389        2.09692       10.67589
C          6.31496        2.96390        9.58023
H          5.43930        3.38312        9.09020
C          7.51249        2.94556        8.86035
H          7.57062        3.46112        7.91054
C          8.58362        2.17944        9.28134
H          9.49716        2.15458        8.70652
C          8.45386        1.39953       10.42010
H          9.27610        0.78104       10.74772
C          7.25041        1.35379       11.09674
H          7.13784        0.67313       11.92848
C          2.84406       -0.03667       10.86922
C          2.66545       -1.40018       10.65433
C          1.76693       -2.17175       11.38749
C          0.98230       -1.58331       12.36970
C          1.10122       -0.21690       12.58753
C          2.01227        0.51603       11.83954
C          4.93784        0.17882        9.10579
C          5.25620        0.57712        7.81477
C          6.26452       -0.00804        7.05804
C          7.01668       -1.04127        7.59587
C          6.75134       -1.45448        8.89559
C          5.74037       -0.83818        9.61876
C          2.85235        1.90710        9.19984
C          2.67938        3.28275        9.26886
C          1.64897        3.95478        8.61975
C          0.75136        3.26552        7.82056
C          0.91302        1.89309        7.68047
C          1.93721        1.25488        8.36704
