120
CSD_code = TIGDUI | q = 0 | S = 0 | Stoichiometry = C41H69N4OSi4Y | MND = 5
Y         16.51402       16.82181       18.63068
Si        13.37098       18.87332       17.90330
Si        15.02983       15.14449       21.58000
Si        15.05134       14.65807       16.01986
Si        19.39083       14.39889       19.37906
O         17.62682       18.38184       18.41926
N         14.39163       17.71350       18.69555
N         15.10575       16.34594       20.33915
N         16.28656       15.15397       17.12334
N         17.93555       15.00388       18.65182
C         14.14345       17.09208       19.83088
C         12.85587       17.26276       20.53941
C         12.79902       18.08405       21.65896
C         11.60098       18.27398       22.32293
C         10.45350       17.63636       21.88121
C         10.50891       16.80782       20.77316
C         11.70448       16.62265       20.10106
C         14.56067       19.82972       16.75207
C         11.98994       18.03800       16.87245
C         12.53065       20.14554       19.06262
C         16.66609       15.34431       22.54902
C         14.99398       13.45864       20.67014
C         13.58943       15.15209       22.83665
C         17.29854       14.47460       17.62532
C         17.73351       13.19467       17.02440
C         17.47039       11.98276       17.64868
C         17.90002       10.79895       17.07483
C         18.59979       10.81760       15.88015
C         18.86112       12.02476       15.25319
C         18.42483       13.20865       15.81895
C         15.30775       13.11426       14.92230
C         13.49403       14.34900       17.09205
C         14.79765       16.17622       14.88564
C         19.04570       12.97852       20.61698
C         20.72332       13.77600       18.15244
C         20.10901       15.91495       20.29677
C         18.52169       19.35893       18.39601
C         18.65677       20.23392       19.50552
C         19.59369       21.25298       19.44062
C         20.39488       21.44788       18.32975
C         20.25262       20.58910       17.25081
C         19.34116       19.54827       17.25043
C         17.76593       20.07245       20.73929
C         18.08599       21.09803       21.83684
C         16.29715       20.27556       20.33950
C         17.94749       18.68056       21.36585
C         19.24565       18.59637       16.05629
C         20.13932       19.03106       14.88552
C         19.70899       17.20027       16.49672
C         17.80885       18.51795       15.51622
C         21.40363       22.55876       18.28001
H         13.69978       18.57383       21.99774
H         11.56038       18.91911       23.18846
H          9.51815       17.78294       22.40086
H          9.61636       16.30451       20.43064
H         11.74977       15.97386       19.23950
H         15.57007       19.84793       17.15517
H         14.23612       20.85731       16.62579
H         14.60529       19.38630       15.76248
H         11.13807       17.77677       17.49255
H         12.34141       17.13268       16.38834
H         11.63524       18.71102       16.09864
H         11.69844       19.70947       19.60567
H         12.14355       20.98142       18.48845
H         13.22836       20.54388       19.79230
H         17.50021       15.47468       21.86402
H         16.86665       14.46937       23.15864
H         16.64077       16.20189       23.21469
H         13.99568       13.21642       20.31702
H         15.32135       12.64570       21.31053
H         15.65114       13.49598       19.80472
H         12.62484       15.04470       22.35156
H         13.56236       16.06990       23.41410
H         13.70164       14.32827       23.53445
H         16.92292       11.97002       18.57886
H         17.68929        9.85798       17.56212
H         18.93907        9.89287       15.43725
H         19.40533       12.04104       14.32019
H         18.62012       14.15455       15.33629
H         16.14839       13.23309       14.24734
H         14.42351       12.93813       14.31794
H         15.48770       12.22129       15.51196
H         13.52931       13.37788       17.57761
H         12.58305       14.38814       16.50323
H         13.42948       15.10656       17.86930
H         15.60073       16.27827       14.16168
H         14.76326       17.08695       15.47904
H         13.86868       16.10172       14.32990
H         18.09446       13.10813       21.12286
H         19.82099       12.93699       21.37513
H         19.02887       12.01598       20.11511
H         20.84549       14.45524       17.31492
H         20.47636       12.79874       17.75028
H         21.68462       13.69092       18.64942
H         19.71780       15.99419       21.30605
H         19.88057       16.84090       19.77461
H         21.18831       15.84065       20.37894
H         19.71836       21.92965       20.26983
H         20.88644       20.76083       16.39645
H         17.91923       22.11390       21.48777
H         19.11284       21.00063       22.18070
H         17.43020       20.92737       22.68900
H         16.17047       21.24414       19.85914
H         15.66030       20.24167       21.22304
H         15.96986       19.49920       19.64695
H         18.99359       18.52373       21.62344
H         17.62726       17.88158       20.67898
H         17.35105       18.60391       22.27459
H         19.86867       20.02340       14.53311
H         20.01184       18.33431       14.05872
H         21.18988       19.02369       15.16466
H         19.05066       16.79925       17.26984
H         20.72114       17.24891       16.89490
H         19.70269       16.51761       15.64755
H         17.43669       19.51755       15.29948
H         17.13541       18.03596       16.23559
H         17.79223       17.93593       14.59534
H         21.35798       23.16601       19.18074
H         21.22316       23.20217       17.41934
H         22.41216       22.15562       18.18723
