47
CSD_code = TIRFUV | q = 0 | S = 0 | Stoichiometry = C13H26Cl3N3SiZr | MND = 6
Zr        -0.86543        9.45814       11.80249
Si        -1.79374       10.53718       14.90110
Cl        -0.30376       11.72977       11.89927
Cl        -2.96445        9.67314       10.83083
Cl         0.28086        9.37197        9.72563
N         -0.90413        9.42704       13.89990
N          0.94578        8.68334       12.85985
N         -1.07180        7.21391       11.39514
H         -0.07205        7.01157       11.28173
C          0.40177        9.16591       14.01676
C          1.20285        9.31595       15.16904
H          0.74955        9.68058       16.07452
C          2.53321        8.99349       15.09990
H          3.16563        9.10760       15.96831
C          3.07392        8.51205       13.90612
H          4.11814        8.25412       13.83947
C          2.75571        7.81100       11.50950
H          2.22826        8.26934       10.67150
H          2.59317        6.73181       11.47914
H          3.82232        7.99265       11.41012
C          2.24927        8.36749       12.80626
C         -0.79379       12.06658       15.46671
H         -0.18921       11.87213       16.34745
H         -1.45836       12.89099       15.70547
H         -0.13207       12.39869       14.67096
C         -3.23613       11.09461       13.78425
H         -3.83824       10.26200       13.42357
H         -2.86060       11.64071       12.91727
H         -3.89964       11.76212       14.32496
C         -2.47754        9.60247       16.42835
H         -1.68474        9.17156       17.03105
H         -3.14688        8.79701       16.14364
H         -3.03593       10.28352       17.05978
C         -2.91072        7.04375       13.02639
H         -3.33489        6.41749       13.80838
H         -3.63499        7.12437       12.21749
H         -2.72563        8.04201       13.43130
C         -1.59804        6.44104       12.53108
H         -0.86187        6.46857       13.34444
H         -1.75770        5.39079       12.24721
C         -1.69761        6.83734       10.10812
H         -2.76890        6.69442       10.26404
H         -1.56210        7.66569        9.40447
C         -1.06222        5.58281        9.51535
H         -1.55476        5.32320        8.58274
H         -1.14342        4.73031       10.18781
H         -0.01064        5.76728        9.30144
