103
CSD_code = TIWTEB | q = 0 | S = 0 | Stoichiometry = C28H64FeN2Si8 | MND = 4
Fe         2.77858        4.32437        4.48022
Si         1.42240        6.17440        4.63765
Si         0.17884        6.87045        2.70506
Si         2.38002        8.20150        5.48554
Si        -0.19137        5.62450        6.36495
Si         3.63844        2.27879        3.94813
Si         1.72669        1.94129        2.52720
Si         5.67439        2.07455        2.71271
Si         3.63801        0.55021        5.60822
N          3.87268        4.14502        5.96841
N          3.91747        5.45037        3.42192
C         -1.19757        5.65034        2.15902
H         -0.78674        4.73087        1.75740
H         -1.83854        6.08129        1.39407
H         -1.83142        5.38230        2.99850
C          1.28116        7.16048        1.16199
H          2.18671        7.69419        1.43240
H          0.77054        7.75077        0.40559
H          1.58394        6.22959        0.69512
C         -0.72100        8.54463        2.96187
H         -1.40857        8.49791        3.79934
H         -1.29617        8.83911        2.08701
H         -0.01221        9.34102        3.16601
C          1.10290        9.34739        6.34599
H          1.55505       10.27704        6.68397
H          0.66370        8.86495        7.21271
H          0.29359        9.60838        5.67190
C          3.15123        9.30752        4.12074
H          3.64789       10.18239        4.53296
H          2.38506        9.66228        3.43854
H          3.88162        8.76495        3.53014
C          3.73823        7.90435        6.81940
H          4.70294        8.30381        6.52004
H          3.87202        6.84551        7.01921
H          3.47483        8.37358        7.76287
C         -0.91327        3.85153        6.54359
H         -1.49289        3.57405        5.66991
H         -1.57679        3.78749        7.40354
H         -0.14340        3.09734        6.67617
C         -1.75446        6.71116        6.15690
H         -2.25161        6.50876        5.21376
H         -1.50008        7.76540        6.17256
H         -2.47917        6.53982        6.94910
C          0.50213        6.03017        8.11368
H          1.51631        6.40993        8.06038
H          0.51562        5.15769        8.76014
H         -0.09950        6.78632        8.60940
C          1.49517        2.75898        0.80192
H          1.25507        3.81497        0.88178
H          0.68532        2.28721        0.25009
H          2.38913        2.66672        0.19407
C          0.30895        2.61084        3.61605
H          0.51640        3.64523        3.90385
H          0.22959        2.02399        4.52351
H         -0.66320        2.59120        3.13360
C          1.39950        0.08132        2.20477
H          0.49654       -0.08595        1.62378
H          1.28829       -0.45849        3.13907
H          2.22279       -0.37255        1.66170
C          1.99287        0.53716        6.59599
H          1.78903        1.50758        7.03678
H          2.01232       -0.18691        7.40628
H          1.15375        0.28134        5.95637
C          5.03393        0.80902        6.89698
H          4.82595        1.65839        7.53859
H          5.98421        0.99991        6.40776
H          5.16686       -0.05831        7.53805
C          3.84366       -1.25467        4.98567
H          3.57913       -1.97909        5.75234
H          4.86695       -1.45643        4.68852
H          3.21243       -1.44928        4.12518
C          6.51924        0.37743        3.00782
H          5.87189       -0.43566        2.69624
H          6.75117        0.22722        4.05736
H          7.44957        0.28257        2.45342
C          7.06244        3.35568        3.04316
H          6.70032        4.37345        2.94831
H          7.88595        3.24171        2.34237
H          7.47394        3.23996        4.04150
C          5.34500        2.12092        0.82514
H          4.59395        1.38737        0.54911
H          6.24072        1.89955        0.25101
H          4.98814        3.09423        0.50851
C          5.20030        4.29588        6.14987
H          5.79540        4.30800        5.25204
C          5.78525        4.41635        7.39189
H          6.85373        4.54634        7.46661
C          4.99774        4.35677        8.53418
H          5.42707        4.44388        9.51846
C          3.62786        4.15187        8.35878
H          2.97037        4.07422        9.20990
C          3.12330        4.04215        7.08858
H          2.06539        3.87897        6.91297
C          4.85556        6.31419        3.84865
H          4.87353        6.50495        4.90831
C          5.74824        6.94972        3.01063
H          6.47942        7.62672        3.42512
C          5.68671        6.72220        1.64234
H          6.36142        7.21294        0.96001
C          4.71001        5.83969        1.18706
H          4.60728        5.63326        0.13322
C          3.86812        5.23850        2.09141
H          3.10240        4.54823        1.77063
