82
CSD_code = TOHMUY | q = 0 | S = 0 | Stoichiometry = C22H54NP2ScSi2 | MND = 5
Sc         8.64412        5.36855        3.82598
P         10.54266        5.80236        5.85267
Si         8.79413        8.37932        5.32091
N          8.64408        7.57042        3.82594
C          9.83389        7.32530        6.57532
C          7.11071        8.59573        6.21762
C          9.60072       10.11169        5.26798
C         12.28828        6.36312        5.47899
C         10.70236        4.72967        7.39357
C         12.20748        7.43855        4.40091
C         13.13214        5.19387        4.97923
C         11.76555        5.16685        8.39393
C         10.85506        3.26309        6.99734
C          7.17958        4.45624        5.34185
C          6.73420        2.99564        5.09167
H          9.15684        7.00426        7.36823
H         10.62848        7.91430        7.03614
H          7.23405        9.09038        7.17648
H          6.43148        9.19869        5.62472
H          6.62917        7.63856        6.39996
H         10.12380       10.36072        6.18624
H         10.30264       10.19792        4.44610
H          8.83623       10.86373        5.11447
H         12.73266        6.78732        6.38762
H          9.71739        4.83824        7.87024
H         13.20650        7.72302        4.07129
H         11.64683        7.06358        3.54264
H         11.70078        8.32565        4.76922
H         13.30585        4.45988        5.76231
H         12.62878        4.70274        4.14723
H         14.10250        5.54956        4.63387
H         11.66541        4.59161        9.31366
H         12.76686        5.00167        8.00416
H         11.65509        6.22062        8.64186
H         10.10362        3.00225        6.25002
H         11.83835        3.06493        6.57857
H         10.72192        2.61839        7.86513
H          7.60808        4.45504        6.36808
H          6.23584        5.03254        5.45918
H          6.03702        2.64362        5.86413
H          6.23115        2.88981        4.12730
H          7.58846        2.31535        5.09558
P          6.74546        5.80235        1.79914
C          7.45438        7.32524        1.07652
Si         8.49402        8.37932        2.33097
C         10.17744        8.59589        1.43430
H         10.05408        9.09056        0.47545
H         10.85661        9.19888        2.02723
H         10.65906        7.63877        1.25193
C          7.68731       10.11163        2.38388
H          7.16410       10.36058        1.46568
H          6.98548       10.19787        3.20583
H          8.45175       10.86374        2.53725
H          8.13151        7.00413        0.28371
H          6.65985        7.91421        0.61557
C          4.99987        6.36316        2.17284
C          5.08071        7.43861        3.25088
H          4.08169        7.72310        3.58052
H          5.64138        7.06366        4.10915
H          5.58740        8.32570        2.88253
C          4.15597        5.19393        2.67262
H          3.98226        4.45993        1.88956
H          4.65930        4.70282        3.50464
H          3.18562        5.54967        3.01794
H          4.55552        6.78734        1.26419
C          6.58578        4.72961        0.25827
C          5.52259        5.16682       -0.74206
H          5.62270        4.59156       -1.66178
H          4.52127        5.00168       -0.35229
H          5.63308        6.22058       -0.99001
C          6.43304        3.26305        0.65456
H          7.18449        3.00221        1.40188
H          5.44975        3.06494        1.07336
H          6.56614        2.61831       -0.21321
H          7.57075        4.83815       -0.21840
C         10.10856        4.45624        2.31001
C         10.55392        2.99563        2.56014
H         11.25109        2.64362        1.78767
H         11.05698        2.88978        3.52450
H          9.69967        2.31535        2.55623
H          9.68004        4.45505        1.28380
H         11.05230        5.03253        2.19266
