88
CSD_code = TOSDIO | q = 0 | S = 0 | Stoichiometry = C31H46FeO8Si2 | MND = 7
Fe        14.23842        1.11588        7.57606
Si        18.48373       -0.26834        2.88543
Si        13.11343        0.89850        2.27759
O         13.80954       -1.63118        8.50006
O         14.80602        2.35517       10.14464
O         17.12333        0.99465        7.28659
O         11.85915        3.20879        9.34788
O         10.53742        1.39098        9.26645
O         17.36280       -0.65956        4.01349
O         16.73246       -7.70023        3.30948
O         13.88815       -0.13474        3.27816
C         13.96346       -0.56469        8.12546
C         14.56207        1.91835        9.12048
C         15.98321        1.06499        7.34756
C          9.90872        1.82006       10.46460
C         11.52723        2.17853        8.80777
C         12.14368        1.62284        7.58820
C         12.86596        2.55606        6.76773
C         13.62903        2.05156        5.70958
C         13.68474        0.63675        5.53686
C         14.60487        0.08711        4.46914
C         15.23193       -1.24986        4.87631
C         16.35538       -1.62699        3.90171
C         19.73679       -1.68374        2.61809
C         17.63395        0.09997        1.21621
C         19.28660        1.29148        3.66471
C         19.91107        0.95398        5.01967
C         20.38096        1.82492        2.74143
C         18.24081        2.38909        3.87380
C         16.87993       -3.00517        4.21354
C         17.85000       -3.17114        5.19569
C         18.34158       -4.43046        5.49758
C         17.86300       -5.53807        4.82581
C         16.88419       -5.38744        3.84238
C         16.39919       -4.11597        3.54110
C         16.37641       -6.56416        3.12738
C         14.22262        2.36100        1.74398
C         11.53085        1.62631        3.06454
C         12.67805       -0.26532        0.81133
C         11.97811        0.52872       -0.29087
C         13.93855       -0.90581        0.22683
C         11.74343       -1.38214        1.28086
H         10.64822        1.93189       11.26017
H          9.18332        1.05210       10.71998
H          9.41246        2.78059       10.31071
H         11.52687        0.85787        7.12574
H         12.83626        3.61409        7.00333
H         14.23451        2.71373        5.10052
H         12.74357        0.09131        5.52960
H         15.41552        0.80052        4.27258
H         15.64967       -1.16479        5.88018
H         14.46439       -2.02378        4.86969
H         15.94859       -1.61439        2.88327
H         20.48828       -1.42664        1.87920
H         20.25346       -1.94001        3.53815
H         19.23372       -2.58339        2.27319
H         17.36744       -0.82040        0.70448
H         16.71892        0.66480        1.36807
H         18.26851        0.66701        0.54379
H         20.69598        0.20969        4.90838
H         20.34932        1.84502        5.46891
H         19.15701        0.56521        5.69784
H         19.97109        2.10648        1.77468
H         20.85370        2.70419        3.17826
H         21.14867        1.07266        2.57960
H         17.78215        2.67273        2.92896
H         17.46239        2.04277        4.54994
H         18.70150        3.27567        4.30952
H         18.22282       -2.29771        5.70800
H         19.09879       -4.54437        6.25869
H         18.22984       -6.53045        5.04038
H         15.64501       -3.99857        2.77507
H         15.60431       -6.32345        2.36838
H         13.63568        3.22108        1.43967
H         14.86444        2.67784        2.56131
H         14.86900        2.10222        0.91096
H         10.90688        2.11206        2.32154
H         11.76254        2.36697        3.82472
H         10.93131        0.85283        3.53585
H         11.73336       -0.11988       -1.13151
H         11.05420        0.96804        0.07636
H         12.61490        1.33107       -0.65500
H         14.60912       -0.15061       -0.17582
H         13.67793       -1.59105       -0.57980
H         14.46945       -1.46426        0.99371
H         11.51708       -2.06092        0.45871
H         12.20751       -1.95331        2.08091
H         10.80607       -0.97221        1.64864
