71
CSD_code = TOSSEZ | q = 0 | S = 0 | Stoichiometry = C24H42Cl2Si2Ti | MND = 12
Ti        -1.70635        1.45652        4.57835
Cl        -3.27551        3.08555        4.48139
Si         1.31137        1.17337        2.41436
C         -1.15936       -0.30983        3.06678
C         -2.56122       -0.20797        2.84083
C         -2.82428        1.08828        2.34034
C         -1.59797        1.79967        2.28175
C         -0.54400        0.93031        2.70707
C          2.33081        0.71583        3.97293
C          1.88139        2.90064        1.83453
C          1.79314       -0.01809        0.98861
C         -0.42035       -1.60829        3.19191
C         -3.53460       -1.34765        2.75047
C         -4.12014        1.56938        1.76246
C         -1.46414        3.15806        1.66547
H          3.25049        1.29111        4.00069
H          1.77808        0.94564        4.87931
H          2.61118       -0.33384        3.99086
H          1.42391        3.19003        0.89450
H          2.95647        2.88378        1.67965
H          1.66979        3.66842        2.57005
H          2.78345        0.22805        0.62102
H          1.10540        0.06059        0.15253
H          1.81342       -1.05644        1.29971
H         -0.31903       -2.04723        2.19606
H          0.57647       -1.45871        3.59427
H         -0.94791       -2.33035        3.81052
H         -3.77541       -1.52009        1.69859
H         -4.46687       -1.13657        3.27152
H         -3.11393       -2.26749        3.14531
H         -4.46800        2.47450        2.26247
H         -4.89280        0.80836        1.84356
H         -3.97893        1.80626        0.70618
H         -1.27309        3.06373        0.59373
H         -0.64671        3.71630        2.11422
H         -2.38432        3.72656        1.80013
Cl        -0.13703        3.08537        4.67545
C         -2.25328       -0.30983        6.08992
C         -0.85143       -0.20801        6.31594
C         -0.58836        1.08822        6.81647
C          0.12193       -1.34771        6.40626
H          0.36281       -1.52014        7.45812
H          1.05416       -1.13665        5.88514
H         -0.29879       -2.26754        6.01147
C         -1.81465        1.79965        6.87500
C         -2.86862        0.93032        6.44963
Si        -4.72398        1.17338        6.74241
C         -5.74333        0.71581        5.18381
H         -6.66319        1.29076        5.15613
H         -5.19079        0.94594        4.27741
H         -6.02341       -0.33391        5.16562
C         -5.29408        2.90068        7.32208
H         -4.83663        3.19007        8.26212
H         -6.36917        2.88381        7.47691
H         -5.08244        3.66845        6.58654
C         -5.20583       -0.01808        8.16814
H         -6.19620        0.22804        8.53562
H         -4.51816        0.06077        9.00425
H         -5.22599       -1.05647        7.85713
C         -2.99230       -1.60829        5.96482
H         -3.09362       -2.04720        6.96068
H         -3.98913       -1.45872        5.56247
H         -2.46477       -2.33038        5.34623
C         -1.94849        3.15802        7.49133
H         -2.13955        3.06364        8.56306
H         -2.76592        3.71626        7.04260
H         -1.02830        3.72653        7.35671
C          0.70750        1.56931        7.39433
H          1.05525        2.47453        6.89441
H          1.48020        0.80835        7.31304
H          0.56636        1.80603        8.45065
