139
CSD_code = TUKZUV | q = 0 | S = 0 | Stoichiometry = C56H74N3O3Si2Y | MND = 6
Y          8.12559       12.17202        5.16798
Si         4.78210       12.12086        5.41674
Si         5.78359       12.74059        2.66841
O          9.70470       13.03707        3.78223
O          8.18815       10.43507        6.50671
O          7.94389       14.63809        5.74282
N          8.97875       12.26653        7.46130
N          9.65183       10.84125        3.97136
C          9.49719       13.03254        8.52047
N          6.09796       12.42076        4.33804
C         11.08272       11.82946        2.22662
C          9.33890       10.07278        8.55690
C          8.91418       13.03322        9.80334
C         13.06691       12.58597        1.00809
C          8.80729       10.96577        7.49223
C          8.56433        8.98063        9.03908
C         11.41898        9.14161        3.99270
C         10.09420        9.52719        3.72877
C         12.19285       12.71135        2.12164
C          9.16965        8.57327        3.27269
C         10.13785       11.90179        3.37561
C         11.81009        7.84079        3.70911
H         12.83069        7.54211        3.89524
C         10.85555       10.90323        1.23569
H         10.00366       10.24527        1.30111
C          9.60194        7.28239        3.00914
H          8.89887        6.54793        2.64589
C         10.57281       13.90134        8.25415
C          7.67823       12.23430       10.15441
H          7.38621       11.62576        9.29570
C         12.47970       13.69061        3.09339
H         11.79601       13.79815        3.91920
C         10.55050       14.65102       10.54487
H         10.96971       15.25797       11.33357
C         11.20451       13.98112        6.88193
H         10.52841       13.49487        6.16012
C         11.08950       14.68502        9.27431
H         11.93192       15.32983        9.07620
C          6.51401       13.17628       10.48021
H          6.73537       13.77622       11.35974
H          5.61338       12.59872       10.67643
H          6.31664       13.85067        9.65057
C          7.51079       15.36145        6.88993
H          8.31825       16.01709        7.24800
H          7.25991       14.65141        7.67578
C         10.92074        6.91799        3.19700
H         11.24766        5.91443        2.96777
C          7.37334       12.62154        1.61270
H          8.16153       13.26477        1.99387
H          7.16936       12.93255        0.59228
H          7.76056       11.60912        1.56991
C         11.41465       15.43392        6.44157
H         10.53217       16.03164        6.65551
H         11.60758       15.47829        5.37246
H         12.26348       15.88135        6.95441
C         10.61009       10.27851        9.03772
H         11.19167       11.11238        8.67631
C          7.23687        8.73901        8.62704
H          6.79249        9.38888        7.88904
C         11.70849       10.79953        0.13033
H         11.49686       10.06154       -0.62902
C         14.19080       13.43449        0.91914
H         14.85041       13.32823        0.06951
C          9.13834        8.11930       10.01300
C         12.40664       10.06559        4.66728
H         11.95971       11.06009        4.76009
C          7.70787        8.91454        3.08783
H          7.55229        9.98214        3.31468
C         13.57693       14.49760        2.97883
H         13.78545       15.24393        3.73234
C         14.44471       14.36703        1.88437
H         15.30969       15.00995        1.81021
C          7.92893       11.29919       11.34142
H          8.84636       10.73384       11.20511
H          7.10428       10.59688       11.44450
H          8.01180       11.86392       12.26702
C          9.46004       13.84231       10.79022
H          9.02290       13.83628       11.77700
C         11.17185        9.41719        9.98864
H         12.17671        9.60252       10.33793
C          7.90626       15.57392        4.65800
H          7.66582       15.01278        3.75410
H          8.89796       16.02970        4.54543
C          8.37427        7.04658       10.51873
H          8.82273        6.39787       11.25791
C         12.79791       11.61672        0.02029
H         13.46800       11.53444       -0.82364
C         10.45351        8.35683       10.46413
H         10.87910        7.68711       11.19788
C          6.52265        7.69178        9.13919
H          5.50744        7.51902        8.81287
C         13.71158       10.19628        3.87902
H         14.28282        9.27207        3.91828
H         14.32450       10.99162        4.29881
H         13.51122       10.43077        2.83676
C          6.87108        8.11046        4.08611
H          7.01747        7.04118        3.94773
H          5.81585        8.33497        3.95345
H          7.16581        8.37366        5.10020
C          5.09631       14.50997        2.34300
H          4.54257       14.88305        3.19644
H          4.41889       14.50321        1.49507
H          5.88540       15.22152        2.11699
C         12.68495        9.53705        6.07890
H         11.76296        9.50423        6.65688
H         13.40294       10.17543        6.59027
H         13.09457        8.53040        6.03794
C         12.54217       13.23557        6.87996
H         13.21253       13.65849        7.62696
H         13.02185       13.30576        5.90592
H         12.38972       12.18488        7.11072
C          7.24869        8.64744        1.65215
H          7.86951        9.18396        0.93685
H          6.22066        8.97490        1.51932
H          7.30207        7.58679        1.41718
C          4.50204       11.54148        1.90079
H          4.70354       10.51143        2.17309
H          4.49814       11.60399        0.81727
H          3.50217       11.77748        2.24754
C          6.84287       16.63181        5.00723
H          7.29129       17.62362        5.06185
H          6.04519       16.65497        4.26955
C          3.22976       13.20583        5.13606
H          3.43854       14.26456        5.25121
H          2.44878       12.94967        5.84462
H          2.83160       13.05871        4.13979
C          4.17191       10.30302        5.44090
H          3.82866        9.98453        4.46278
H          3.34405       10.17875        6.13298
H          4.96728        9.63295        5.75247
C          5.35599       12.49486        7.20945
H          6.44593       12.51553        7.26122
H          5.00720       11.72943        7.89512
H          4.97912       13.44646        7.57081
C          7.09413        6.83533       10.09177
H          6.51447        6.01318       10.48564
C          6.33390       16.18580        6.38114
H          5.46350       15.53940        6.26952
H          6.08643       17.01808        7.03585
