77
CSD_code = TUNNAR | q = 0 | S = 0 | Stoichiometry = C27H47NSiZr | MND = 8
Zr         5.72212       10.03278       13.32616
Si         8.92552       10.58038       12.48808
N          7.54953        9.56033       12.45065
C          4.89679       11.95157       11.86527
C          3.80248       11.05393       12.03728
C          3.41150       11.09332       13.40205
C          4.25718       12.00796       14.07500
C          5.18407       12.53195       13.13387
C          5.41617       12.41886       10.52768
C          3.00752       10.41283       10.92988
C          2.20623       10.42737       14.00705
C          4.02100       12.53191       15.46590
C          6.11635       13.68152       13.42161
C          7.62819        8.20761       12.07786
C          7.14753        7.80333       10.81370
C          7.28999        6.48884       10.40046
C          7.87523        5.54378       11.22128
C          8.29655        5.91729       12.48184
C          8.18024        7.22568       12.92804
C          6.52095        8.83385        9.90090
C          5.34629        8.28395        9.09033
C          7.59303        9.38544        8.95549
C          8.59168        7.55106       14.34526
C          7.68539        6.80234       15.33055
C         10.05789        7.21020       14.62070
C          9.11764       11.31164       14.26099
C          8.80888       12.13658       11.36228
C         10.53508        9.69763       11.93476
C          4.66136        8.06814       13.17657
C          6.05321        9.95578       15.54097
H          4.63056       12.33556        9.77659
H          6.28289       11.85620       10.17704
H          5.70215       13.46972       10.57996
H          2.61672        9.43890       11.22521
H          3.60792       10.28297       10.03263
H          2.15097       11.04331       10.67347
H          1.85567        9.60643       13.38425
H          1.38693       11.14384       14.10716
H          2.42774       10.03686       15.00217
H          3.68325       11.74303       16.13703
H          3.24206       13.29950       15.44411
H          4.91941       12.98313       15.88430
H          5.61418       14.41444       14.05497
H          6.40378       14.18978       12.50203
H          7.03035       13.36632       13.93269
H          6.94698        6.19160        9.42147
H          7.99031        4.52405       10.88520
H          8.72981        5.17202       13.13262
H          6.15018        9.65017       10.54978
H          4.86013        9.09000        8.54338
H          4.61713        7.80999        9.74361
H          5.68116        7.55289        8.35868
H          8.43982        9.75700        9.52603
H          7.19397       10.19148        8.34147
H          7.94772        8.59501        8.29665
H          8.44878        8.62636       14.49331
H          6.64334        7.07789       15.16658
H          7.95759        7.04968       16.35521
H          7.78600        5.72670       15.20440
H         10.70843        7.71649       13.91443
H         10.23188        6.13983       14.54039
H         10.33041        7.52174       15.62736
H          8.13711       11.47338       14.71444
H          9.63935       12.26340       14.23502
H          9.68098       10.65711       14.91923
H          7.96571       12.76372       11.62433
H          8.73603       11.89916       10.30588
H          9.70634       12.73422       11.49161
H         10.33870        8.65318       11.71407
H         11.30545        9.74105       12.69724
H         10.94368       10.15011       11.03697
H          4.15840        7.96902       12.20199
H          3.88673        7.95772       13.95200
H          5.32281        7.19525       13.26448
H          6.90275        9.35805       15.88896
H          5.15733        9.52650       16.02250
H          6.19148       10.95706       15.97574
