100
CSD_code = TUVCET | q = 0 | S = 0 | Stoichiometry = C35H55B2LaN2OP2Si2 | MND = 10
C         -0.93973        3.20280        4.80132
H         -1.94837        2.81397        4.99499
C         -1.17615        6.15817        5.54304
C         -0.50311        6.82210        4.52351
H          0.33303        6.32467        4.04884
C         -0.89771        8.08844        4.13859
H         -0.37015        8.60450        3.34971
C         -1.97332        8.69654        4.76651
H         -2.28432        9.68679        4.46815
C         -2.64604        8.03682        5.78083
H         -3.48026        8.51431        6.27424
C         -2.25077        6.76948        6.17262
H         -2.77059        6.26680        6.97578
C         -1.35499        4.04210        7.49838
C         -2.71641        3.75981        7.55727
H         -3.32580        3.84400        6.66757
C         -3.29726        3.37459        8.75235
H         -4.35507        3.15781        8.79244
C         -2.52488        3.26693        9.89802
H         -2.98207        2.96672       10.82932
C         -1.16838        3.54350        9.84548
H         -0.56683        3.46566       10.74015
C         -0.58759        3.92444        8.64860
H          0.46912        4.13490        8.58022
C          0.89874        7.13614        7.75111
H          1.47564        7.63451        8.52329
H          0.03683        6.67561        8.22545
H          0.52703        7.89956        7.07546
C          3.15268        5.05338        8.10793
H          2.66323        4.78314        9.03992
H          3.93883        5.75852        8.35513
H          3.62718        4.16678        7.69782
C          3.00416        6.74681        5.49827
H          3.75703        7.37124        5.96760
H          2.39742        7.38559        4.86347
H          3.51873        6.02772        4.86631
C         -2.02555        5.12519        2.71539
C         -3.23409        5.19314        3.40112
H         -3.43901        4.48917        4.19655
C         -4.16740        6.16402        3.09150
H         -5.09966        6.20848        3.63592
C         -3.90531        7.08043        2.08713
H         -4.63276        7.84108        1.84580
C         -2.70597        7.01973        1.39893
H         -2.49547        7.73410        0.61644
C         -1.77203        6.04790        1.71084
H         -0.83321        6.00952        1.18478
C         -1.50006        2.41195        2.12296
C         -0.59076        1.51714        1.57189
H          0.46846        1.68634        1.71439
C         -1.03389        0.43062        0.84030
H         -0.32000       -0.26292        0.42275
C         -2.39164        0.23072        0.65285
H         -2.74187       -0.61785        0.08395
C         -3.30273        1.12404        1.19214
H         -4.36221        0.97398        1.04125
C         -2.86151        2.21135        1.92521
H         -3.57903        2.90889        2.33378
C          3.02426        3.39700        1.16983
H          3.50521        3.54936        0.20807
H          2.80349        2.33365        1.25650
H          3.75298        3.64893        1.93781
C          0.39377        4.17645       -0.25837
H          0.75975        3.31578       -0.80982
H          0.41638        5.02597       -0.93416
H         -0.64464        3.97840       -0.00620
C          2.04277        6.31693        1.36192
H          2.61384        6.55482        0.47051
H          2.68961        6.48043        2.21876
H          1.22504        7.02825        1.42955
C         -0.31665        0.64829        7.15643
H         -0.52206        0.16641        6.19684
H         -1.16999        1.27818        7.44313
C          0.01383       -0.34729        8.26313
H          0.55277       -1.20081        7.85182
H         -0.87635       -0.70037        8.77828
C          0.93513        0.48378        9.14962
H          0.34875        1.17074        9.76094
H          1.57115       -0.11797        9.79405
C          1.73435        1.24952        8.10092
H          2.10998        2.21296        8.45576
H          2.57878        0.64322        7.74481
B          4.39337        2.92949        5.14333
H          5.04329        3.67768        5.79567
H          5.06805        2.16736        4.52553
H          3.69817        3.64015        4.31411
H          3.62802        2.27073        5.92306
B          1.36141       -0.06382        3.94490
H          2.10417        0.99409        3.57724
H          1.44072       -0.81480        3.03052
H          0.19466        0.27596        4.10008
H          1.82861       -0.53636        4.94414
N          1.07009        4.55442        6.07024
N          0.70547        4.10275        2.82471
O          0.83829        1.49117        7.00430
P         -0.51417        4.50452        5.93978
P         -0.82548        3.78774        3.12782
Si         1.96864        5.84346        6.82588
Si         1.46053        4.49071        1.30772
La         1.73141        2.63760        4.68056
