91
CSD_code = UBOHOI | q = 0 | S = 0 | Stoichiometry = C35H49N3Si3Zr | MND = 4
Zr         2.59369        8.55046        3.63544
Si         3.01616        8.76463        0.58075
Si         5.36254        9.44722        2.59743
Si         4.39002        6.45084        2.25386
N          1.76683        8.51581        1.71876
N          4.06056       10.03165        3.53622
N          3.66731        6.76615        3.76935
C          4.64668        8.14318        1.38271
H          5.37462        7.99854        0.58442
C          2.74875        7.91026       -1.12017
H          2.62757        6.83833       -1.02931
H          3.58512        8.09030       -1.78601
H          1.85994        8.30274       -1.60296
C          3.10839       10.63223        0.09343
H          2.19421       10.95764       -0.39634
H          3.92484       10.82174       -0.59509
H          3.25604       11.25983        0.96689
C          6.33426       10.79325        1.62879
H          5.70268       11.34771        0.94651
H          7.13906       10.35602        1.04884
H          6.77980       11.50393        2.31694
C          6.72607        8.70208        3.74618
H          7.14414        9.45921        4.40457
H          7.54774        8.29024        3.17018
H          6.32479        7.90872        4.36906
C          6.05228        5.48852        2.32859
H          6.79948        6.00048        2.92151
H          6.46538        5.34067        1.33723
H          5.89993        4.50730        2.76575
C          3.27167        5.25970        1.22201
H          3.16605        4.29535        1.71230
H          3.69132        5.07435        0.23914
H          2.27646        5.67196        1.08753
C          1.10230        8.84054        5.28550
H          1.02464        7.96588        5.95364
H          0.07985        9.02681        4.91503
H          1.34500        9.69606        5.93865
C          0.48175        7.96608        1.38134
H          0.56946        7.21466        0.57352
C         -0.58055        9.01859        0.94189
H         -0.30164        9.98250        1.36822
H         -0.61081        9.12322       -0.14118
C         -1.92342        8.55286        1.52539
H         -2.55300        9.38312        1.84845
H         -2.48928        7.97540        0.78874
C         -1.52723        7.65618        2.66155
C         -2.30740        7.15479        3.68626
H         -3.35060        7.42378        3.76829
C         -1.72754        6.29650        4.61013
H         -2.32598        5.90034        5.41737
C         -0.39311        5.93579        4.50369
H          0.02843        5.25106        5.22624
C          0.40123        6.44232        3.47945
H          1.44178        6.14068        3.35666
C         -0.18259        7.30869        2.56774
C          3.84998       11.42408        3.82699
H          4.16857       12.06065        2.97957
C          4.57312       11.93608        5.10924
H          4.75100       11.08222        5.76348
H          5.53524       12.38531        4.86923
C          3.61381       12.92813        5.78528
H          3.84793       13.95647        5.49546
H          3.65226       12.87503        6.87422
C          2.26748       12.55207        5.23962
C          1.01400       12.93924        5.67441
H          0.90216       13.57604        6.53999
C         -0.10216       12.49613        4.97842
H         -1.08736       12.78955        5.31010
C          0.03356       11.68951        3.85900
H         -0.85137       11.37349        3.32460
C          1.29172       11.28915        3.41921
H          1.42138       10.68733        2.51934
C          2.40098       11.72635        4.12699
C          4.08523        6.14123        4.99482
H          5.17562        5.95144        4.99355
C          3.36698        4.79609        5.31575
H          2.40090        4.79751        4.81000
H          3.93891        3.94364        4.95336
C          3.16381        4.76547        6.83828
H          2.22715        4.28770        7.12890
H          3.97809        4.22472        7.32920
C          3.21861        6.21207        7.23366
C          2.85163        6.80187        8.42839
H          2.43023        6.21150        9.22917
C          3.03402        8.16906        8.58341
H          2.74824        8.64242        9.51133
C          3.58553        8.93128        7.56514
H          3.73306        9.99107        7.71873
C          3.95150        8.34616        6.35672
H          4.42111        8.92157        5.55857
C          3.75511        6.98205        6.20551
