87
CSD_code = UCODEV | q = 0 | S = 0 | Stoichiometry = C29H47ClN3NbP2Si4 | MND = 6
Nb         3.62550        3.20752       13.17633
Cl         4.95376        4.53335       14.48934
P          5.61366        1.93586       12.44549
P          1.51471        4.53269       13.34739
Si         5.57421        4.33887       10.66495
Si         3.30008        6.12675       11.49883
Si         0.93874        2.37347       11.38419
Si         3.28088        0.55158       11.14150
N          4.11484        4.61937       11.51731
N          2.53913        1.93700       11.85274
N          3.29966        1.90242       14.79031
C          6.72263        3.12280       11.65130
C          1.49426        5.89688       12.14411
C          0.17578        3.44428       12.79648
C          5.19105        0.77294       11.12406
C          5.21314        3.61823        8.92326
C          6.69961        5.86656       10.42380
C          3.14261        6.90227        9.76138
C          4.04282        7.42935       12.69857
C         -0.28220        0.90728       11.23126
C          0.93885        3.35916        9.74251
C          2.92123       -1.05000       12.13865
C          2.81462        0.20371        9.32084
C          6.56198        1.02395       13.70182
C          6.33914       -0.32925       13.94298
C          6.93740       -0.95585       15.02090
C          7.75265       -0.23850       15.88018
C          7.95701        1.11531       15.66561
C          7.35779        1.74496       14.59180
C          0.90552        5.26799       14.90116
C          1.63148        5.04601       16.06632
C          1.19027        5.57189       17.26838
C          0.02216        6.31502       17.31201
C         -0.70657        6.53498       16.15318
C         -0.26710        6.01454       14.95045
C          2.30223        0.97575       14.75921
C          2.11086        0.00587       15.71222
C          2.95724       -0.06802       16.81560
C          3.96612        0.88899       16.88532
C          4.09709        1.82881       15.89329
H          7.23925        3.69251       12.42513
H          7.46395        2.60765       11.03678
H          0.80003        5.65403       11.34259
H          1.15611        6.80805       12.63748
H         -0.12250        2.81675       13.63902
H         -0.68912        4.02692       12.47519
H          5.51373        1.22206       10.18729
H          5.72423       -0.16810       11.24932
H          4.96274        4.43020        8.24955
H          6.06843        3.09955        8.50143
H          4.37069        2.93420        8.94147
H          6.96714        6.32949       11.36736
H          7.61802        5.60375        9.90989
H          6.19097        6.61119        9.82558
H          4.08915        7.33359        9.46357
H          2.86481        6.17409        9.00870
H          2.40335        7.69493        9.75107
H          4.01897        7.06703       13.72441
H          5.07671        7.64350       12.45081
H          3.49600        8.36734       12.66603
H         -1.28609        1.25875       11.01937
H          0.01078        0.25132       10.42235
H         -0.32693        0.31016       12.13604
H          1.82049        3.99281        9.69169
H          0.96544        2.68010        8.89698
H          0.05870        3.98463        9.62660
H          1.85860       -1.26673       12.14150
H          3.42472       -1.90518       11.69762
H          3.24157       -0.96528       13.17352
H          1.78997       -0.13720        9.24787
H          2.91194        1.08263        8.69406
H          3.44653       -0.57286        8.90306
H          5.68963       -0.89354       13.28921
H          6.76134       -2.00750       15.19556
H          8.21835       -0.73013       16.72148
H          8.57815        1.68225       16.34386
H          7.49182        2.80927       14.44717
H          2.54877        4.46625       16.01934
H          1.75842        5.40338       18.17137
H         -0.32266        6.72555       18.24971
H         -1.61820        7.11396       16.19042
H         -0.83201        6.18512       14.04384
H          1.64396        1.03586       13.90098
H          1.29491       -0.69186       15.59599
H          2.83212       -0.81844       17.57819
H          4.65704        0.90422       17.71443
H          4.88843        2.56657       15.95409
