78
CSD_code = UDUSAQ | q = 0 | S = 0 | Stoichiometry = C26H45CrN3O2Si | MND = 4
Cr         8.16466       10.23109       12.65524
Si        10.65519        8.52148       13.21246
O          8.83432       11.31621        8.75578
O          5.91481       10.37674       16.11186
N          8.65638       10.29796       10.75668
N          6.64169       11.30606       12.20821
N          7.46696       10.32518       14.49133
C          8.92498        9.22664        9.80673
H          9.75450        8.61060       10.16489
C          9.29576        9.99444        8.52263
H         10.38042       10.02435        8.36049
H          8.81483        9.60892        7.62355
C          8.52534       11.38899       10.07926
C          8.00210       12.67882       10.63819
C          6.70219       12.35498       11.33958
C          5.48801       13.00771       11.32238
H          5.22111       13.87365       10.74738
C          4.65043       12.32714       12.23055
H          3.63249       12.57863       12.45749
C          5.39855       11.29358       12.75147
C          5.08042       10.25839       13.80254
C          6.21329       10.30042       14.79074
C          7.14356       10.42691       16.81897
H          7.23340        9.52310       17.43037
H          7.12900       11.29830       17.47699
C          8.22688       10.49948       15.72054
H          8.93998        9.67400       15.81626
C          9.01801       11.82177       15.67628
H          9.69120       11.73597       14.81360
C          8.10602       13.02620       15.44982
H          7.48961       12.87657       14.56388
H          8.70357       13.92384       15.30794
H          7.44988       13.18993       16.30165
C          9.86842       11.99519       16.93211
H          9.24567       12.09715       17.81769
H         10.48330       12.88794       16.84608
H         10.52452       11.13938       17.07443
C          7.67453        8.33238        9.65794
H          7.44200        7.96962       10.66293
C          6.45683        9.10946        9.16337
H          6.22661        9.92358        9.84798
H          5.59495        8.44794        9.12036
H          6.61610        9.52188        8.16970
C          7.97607        7.13155        8.76450
H          7.11687        6.46623        8.73605
H          8.82821        6.57413        9.14696
H          8.19796        7.44002        7.74523
C          9.01106       13.22796       11.66701
H          9.16223       12.48634       12.45990
H          8.61977       14.14238       12.10786
H          9.96583       13.44442       11.19007
C          7.79679       13.69959        9.51948
H          8.73148       13.87474        8.99241
H          7.44530       14.63860        9.93836
H          7.06231       13.33517        8.80683
C          3.75656       10.56647       14.50265
H          2.94586       10.52650       13.78044
H          3.78207       11.55756       14.94724
H          3.56732        9.83973       15.28833
C          5.01593        8.85927       13.16171
H          4.23052        8.84490       12.41021
H          4.79861        8.10653       13.91650
H          5.97228        8.63545       12.68904
C          8.78581        8.28301       13.05465
H          8.38617        7.88020       13.99050
H          8.60846        7.51143       12.30454
C         11.41857       10.18171       12.59189
H         11.13629       10.40249       11.56588
H         12.50456       10.13452       12.62472
H         11.11864       11.02605       13.20967
C         11.60142        7.16896       12.22340
H         11.35761        6.17597       12.58731
H         12.67683        7.29238       12.30565
H         11.35178        7.19547       11.16662
C         11.29694        8.36785       15.02006
H         12.34569        8.08861       15.03396
H         10.75348        7.60731       15.57155
H         11.20596        9.30224       15.56531
