87
CSD_code = UFAPOJ | q = 0 | S = 0 | Stoichiometry = C31H51N3SiTi | MND = 8
Ti         6.97497        4.35925        3.81777
Si         7.14056        2.08732        2.06659
N          6.59736        2.44459        3.67941
N          6.94451        5.05861        5.51086
N          4.16647        5.94388        3.59699
C          6.13722        7.44562        5.21811
H          5.31245        7.94386        4.71148
H          7.03907        7.55867        4.61897
H          6.27915        7.92932        6.18026
C          4.68264        5.81181        6.43246
H          3.81181        6.36478        6.08454
H          4.99756        6.22557        7.38836
H          4.39649        4.76993        6.56588
C          5.78526        5.94833        5.36648
C          5.25710        5.46048        4.00761
C          3.38143        5.69702        2.49692
C          7.05925        4.95118        1.55391
C          5.92243        4.99852        0.57499
H          5.16158        4.25283        0.79386
H          6.29726        4.80709       -0.43350
H          5.44730        5.97711        0.57618
C          7.65630        6.09149        2.14875
C          7.26519        7.51497        1.87204
H          6.22607        7.69979        2.14060
H          7.38166        7.72871        0.80659
H          7.89301        8.21257        2.42300
C          8.82315        5.67188        2.83795
C          9.86086        6.61797        3.38215
H         10.72787        6.08335        3.76656
H          9.46669        7.24803        4.18259
H         10.21131        7.27848        2.58512
C          8.93595        4.26781        2.67264
C         10.11852        3.41587        3.04627
H          9.82727        2.55717        3.65383
H         10.86780        3.98309        3.59711
H         10.59189        3.03294        2.13977
C          7.86312        3.81867        1.83625
C          8.44662        0.69623        1.79665
H          8.91860        0.80896        0.82573
H          7.96719       -0.27760        1.80707
H          9.23532        0.67825        2.54031
C          5.78577        1.60287        0.79068
H          6.08425        1.88824       -0.21255
H          4.82558        2.06476        0.99250
H          5.63709        0.52785        0.78930
C          6.19357        1.42765        4.63896
C          5.26744        2.04078        5.70399
H          5.28526        1.44644        6.61604
H          4.24327        2.07790        5.34296
H          5.60875        3.05606        5.91406
C          5.44775        0.26422        3.96538
H          5.04589       -0.40528        4.72305
H          6.11923       -0.30012        3.32568
H          4.62877        0.64273        3.36143
C          7.43681        0.84301        5.34092
H          7.14936        0.03612        6.01201
H          7.94268        1.61379        5.91959
H          8.12721        0.44724        4.60075
C          7.81117        5.02385        6.67877
C          9.11734        4.35528        6.21065
H          9.72230        4.04943        7.06254
H          9.69392        5.05300        5.60723
H          8.87024        3.47703        5.60717
C          8.17841        6.40164        7.26255
H          8.97382        6.27533        7.99480
H          7.33043        6.85670        7.76597
H          8.53581        7.06999        6.48387
C          7.23695        4.17090        7.83539
H          7.91494        4.21062        8.68595
H          7.13107        3.13414        7.52821
H          6.26832        4.53981        8.15662
C          2.96270        6.78631        1.71378
C          3.44288        8.17630        2.01171
H          3.77461        8.24277        3.04571
H          2.64218        8.89524        1.84741
H          4.27344        8.45243        1.36074
C          2.09697        6.57179        0.65295
H          1.79555        7.41379        0.04554
C          1.60813        5.31009        0.37354
H          0.93647        5.15579       -0.45753
C          1.96892        4.24789        1.18638
H          1.56497        3.26378        0.99195
C          2.84451        4.42054        2.24214
C          3.18964        3.27991        3.15187
H          2.81633        3.49474        4.15555
H          4.27482        3.14915        3.21162
H          2.72733        2.35940        2.80059
