51
CSD_code = UFOZEW | q = 0 | S = 0 | Stoichiometry = C23H26SiZr | MND = 14
Zr         1.56719       13.02869        4.65262
Si         1.54175       10.41259        1.35203
C          1.33941       11.93339        2.39399
C          0.86290       13.09501        2.38919
C          0.58800       14.35294        2.86663
C         -0.77006       14.69348        3.46851
C         -0.52644       15.30069        4.83840
C          0.57703       14.79257        5.55609
C          0.08004        9.21156        1.64022
C          3.17434        9.55434        1.87793
C          1.64876       10.81643       -0.51369
C         -1.33278       16.31074        5.34265
C         -1.06825       16.85068        6.59090
C          0.00520       16.37843        7.32397
C          0.80761       15.36576        6.81210
C         -0.18912       11.24123        4.87189
C         -0.47129       12.12596        5.92913
C          0.59629       12.05934        6.85296
C          1.53184       11.12829        6.36981
C          1.06021       10.63069        5.13528
C          3.62601       14.23037        3.71452
C          3.88547       12.85122        3.59820
C          3.94993       12.30755        4.89782
C          3.72831       13.35473        5.82222
C          3.53040       14.54617        5.08640
H          1.09871       15.20232        2.40811
H         -1.37561       13.77736        3.56676
H         -1.32768       15.39518        2.83572
H         -0.86713        9.67559        1.38131
H          0.01502        8.88710        2.67411
H          0.18595        8.32251        1.02570
H          4.03490       10.02094        1.40680
H          3.17639        8.50877        1.58363
H          3.33233        9.59222        2.95297
H          0.71567       11.23140       -0.88167
H          1.86957        9.92833       -1.09823
H          2.42983       11.54396       -0.71242
H         -2.16805       16.68131        4.76185
H         -1.69418       17.63861        6.98515
H          0.21823       16.79947        8.29749
H          1.64496       15.02119        7.42139
H         -0.86358       10.98076        4.06469
H         -1.39708       12.66691        6.08035
H          0.61733       12.53880        7.82306
H          2.38850       10.75564        6.91828
H          1.48662        9.80206        4.58430
H          3.63473       14.94517        2.90187
H          4.12799       12.33160        2.68140
H          4.26920       11.30095        5.14150
H          3.84076       13.28759        6.89940
H          3.46097       15.54548        5.49782
