231
CSD_code = UGEBIS | q = 0 | S = 0 | Stoichiometry = C95H131N2ScSi2 | MND = 4
Sc         2.90711       11.45283        8.45377
Si         1.18426        8.33530        8.73128
Si         6.48102       11.74637        8.84276
N          1.77468       12.34008        6.83250
N          1.48748       12.54807        9.66299
C          0.05340       13.50246        5.53136
H         -0.97576       13.81902        5.67479
H          0.07862       12.68063        4.81640
H          0.61145       14.33277        5.10071
C          0.67547       13.07761        6.84025
C          0.02185       13.46461        8.01225
H         -0.89277       14.02258        7.87848
C          0.39888       13.22090        9.33608
C         -0.50779       13.74450       10.42399
H         -1.46031       14.07067       10.01672
H         -0.04054       14.58769       10.93130
H         -0.68442       12.96851       11.16841
C          2.41349       12.07372        5.60216
C          3.11906       13.07551        4.93709
H          3.16687       14.06853        5.36422
C          3.76732       12.80518        3.74088
C          3.69342       11.52868        3.19781
H          4.17684       11.32081        2.25431
C          2.98846       10.51981        3.84568
C          2.36311       10.79116        5.05469
H          1.81436       10.01030        5.56790
C          4.50270       13.88088        3.03205
C          3.83644       14.67651        2.09846
C          4.53922       15.67709        1.44283
H          4.02874       16.30125        0.72358
C          5.88484       15.89989        1.68602
C          6.52685       15.09983        2.61865
H          7.57393       15.26202        2.82281
C          5.85585       14.09654        3.30043
C          2.36502       14.47609        1.81293
H          2.01615       13.60834        2.38144
C          2.12124       14.19348        0.33007
H          1.06863       13.97953        0.15749
H          2.70576       13.33423        0.00992
H          2.40024       15.04613       -0.28355
C          1.56480       15.69708        2.27283
H          0.49897       15.52400        2.13774
H          1.84458       16.58007        1.70351
H          1.75383       15.89822        3.32541
C          6.62502       16.99322        0.95454
H          5.92159       17.48486        0.27274
C          7.14900       18.04432        1.93529
H          7.62733       18.85913        1.39584
H          7.87711       17.60917        2.61518
H          6.33095       18.45185        2.52545
C          7.76794       16.41278        0.11931
H          8.25486       17.19966       -0.45292
H          7.38813       15.66448       -0.57304
H          8.51224       15.94230        0.75683
C          6.58990       13.25909        4.32286
H          5.87938       12.55786        4.77390
C          7.15555       14.13938        5.43886
H          7.61371       13.52597        6.21116
H          6.36129       14.72752        5.89322
H          7.90852       14.82343        5.05572
C          7.70112       12.44490        3.65734
H          8.19146       11.80858        4.39090
H          8.45045       13.09716        3.21571
H          7.29033       11.81485        2.87110
C          2.88764        9.19107        3.19419
C          1.95566        9.00255        2.17168
C          1.95639        7.80439        1.47280
H          1.24702        7.65654        0.67105
C          2.86341        6.79659        1.75758
C          3.73875        6.98063        2.81740
H          4.43409        6.19551        3.06946
C          3.76118        8.16008        3.54594
C          0.94288       10.07277        1.83014
H          1.16733       10.96589        2.42163
C         -0.46328        9.59929        2.20647
H         -1.19402       10.37842        1.99792
H         -0.50773        9.35713        3.26624
H         -0.73672        8.71193        1.64037
C          1.01067       10.46226        0.35303
H          0.33883       11.29430        0.15362
H          0.72279        9.63277       -0.28742
H          2.02178       10.76422        0.09006
C          2.91284        5.55392        0.90055
H          2.18437        5.67121        0.08968
C          4.29804        5.39516        0.26905
H          4.30241        4.55738       -0.42522
H          5.05173        5.21183        1.03053
H          4.57181        6.29711       -0.27422
C          2.53669        4.30403        1.69606
H          2.60368        3.42023        1.06451
H          1.51625        4.38728        2.06320
H          3.20268        4.17331        2.54550
C          4.76723        8.35264        4.65719
H          4.48292        9.24078        5.23320
C          6.15377        8.60273        4.05754
H          6.88358        8.76033        4.84793
H          6.13498        9.48614        3.42328
H          6.46951        7.75361        3.45530
C          4.79541        7.16454        5.61890
H          5.42868        7.39487        6.47345
H          5.19357        6.27436        5.13880
H          3.79305        6.94324        5.97818
C          1.81310       12.37637       11.02500
C          2.35333       13.41213       11.78479
H          2.51539       14.38177       11.33360
C          2.68559       13.20644       13.11679
C          2.47427       11.96128       13.69730
H          2.71207       11.81170       14.74022
C          1.93509       10.92063       12.95235
C          1.61119       11.13185       11.61962
H          1.17327       10.33158       11.03765
C          3.21941       14.32349       13.93267
C          2.34361       15.08447       14.71088
C          2.85130       16.11787       15.48226
H          2.17556       16.70335       16.08668
C          4.20569       16.41585       15.49447
C          5.05551       15.65301       14.71022
H          6.11182       15.88000       14.71219
C          4.58500       14.60834       13.92727
C          0.85842       14.79711       14.71581
H          0.66008       13.98110       14.01404
C          0.06360       16.01834       14.24879
H         -0.99311       15.77100       14.16922
H          0.41660       16.34779       13.27373
H          0.16842       16.84531       14.94635
C          0.40013       14.34410       16.10312
H         -0.65927       14.09714       16.08833
H          0.56064       15.12596       16.84133
H          0.95584       13.46175       16.41235
C          4.74863       17.54374       16.33804
H          5.83283       17.59183       16.18547
C          4.14917       18.88387       15.90708
H          4.59413       19.69723       16.47642
H          3.07472       18.89819       16.07239
H          4.33520       19.05813       14.84951
C          4.48961       17.28569       17.82369
H          4.94200       18.06939       18.42772
H          4.91485       16.32944       18.12070
H          3.42286       17.26523       18.03255
C          5.54581       13.79618       13.08923
H          4.97498       13.03551       12.54563
C          6.25130       14.68029       12.05931
H          6.89447       14.07786       11.42154
H          6.86261       15.43587       12.54645
H          5.51947       15.18560       11.43257
C          6.56478       13.07860       13.97669
H          7.22895       12.46952       13.36711
H          6.05711       12.43205       14.68930
H          7.16968       13.79189       14.53083
C          1.64050        9.60443       13.56852
C          0.36148        9.35965       14.07371
C          0.07721        8.11599       14.61546
H         -0.91626        7.91927       14.98763
C          1.03903        7.12032       14.68665
C          2.30479        7.38791       14.19009
H          3.05817        6.61666       14.24603
C          2.61928        8.61053       13.61534
C         -0.71538       10.42006       14.00987
H         -0.26502       11.35081       13.65046
C         -1.80456       10.00530       13.01754
H         -2.56226       10.78277       12.93920
H         -2.28798        9.08549       13.33764
H         -1.37515        9.83828       12.03190
C         -1.31032       10.69811       15.39121
H         -2.01603       11.52447       15.33447
H         -0.52333       10.96379       16.09335
H         -1.83673        9.82927       15.77743
C          0.71624        5.76430       15.26516
H          1.63482        5.16653       15.26595
C          0.22294        5.87671       16.70866
H          0.06935        4.88645       17.13246
H         -0.71878        6.41761       16.75689
H          0.95292        6.40523       17.31804
C         -0.31603        5.04852       14.39080
H         -0.50088        4.04455       14.76708
H          0.04300        4.97625       13.36657
H         -1.25774        5.59200       14.38452
C          4.00208        8.87156       13.06394
H          3.94519        9.74010       12.39768
C          4.53540        7.68915       12.25371
H          5.44527        7.97896       11.73292
H          3.80077        7.37001       11.51771
H          4.77322        6.84476       12.89570
C          4.96223        9.21245       14.20652
H          5.95494        9.41993       13.81359
H          5.03007        8.38308       14.90752
H          4.61366       10.09003       14.74572
C          2.86202        9.20989        8.78719
H          3.52120        8.69958        8.06625
H          3.31158        8.99804        9.77036
C         -0.22923        9.61096        8.43352
H         -1.11980        9.14220        8.02419
H          0.08714       10.39420        7.74010
H         -0.52455       10.10054        9.35869
C          0.72700        7.37176       10.32682
H         -0.27246        6.95095       10.26682
H          0.76310        8.00645       11.20770
H          1.41493        6.55094       10.50279
C          1.15596        7.09028        7.28946
C          0.67573        7.43137        6.02939
H          0.23752        8.40806        5.87794
C          0.73305        6.54608        4.96829
H          0.36854        6.84012        3.99426
C          1.26361        5.28182        5.15501
H          1.29999        4.58023        4.33619
C          1.74576        4.91833        6.40050
H          2.16216        3.93199        6.55185
C          1.69923        5.81916        7.44826
H          2.08952        5.52994        8.41302
C          4.84203       12.62611        8.56727
H          4.92239       13.21702        7.63682
H          4.70789       13.36348        9.38036
C          6.77153       10.50917        7.40786
H          7.67703        9.92784        7.54970
H          6.85423       11.01678        6.45264
H          5.93528        9.81621        7.34133
C          6.38737       10.74053       10.47117
H          7.27658       10.13796       10.62693
H          5.52889       10.07326       10.44292
H          6.27503       11.38642       11.33544
C          8.03422       12.85473        8.96954
C          9.30089       12.30395        9.14565
H          9.40582       11.22979        9.20486
C         10.42652       13.10084        9.24723
H         11.39933       12.64896        9.38403
C         10.30896       14.47876        9.17492
H         11.18672       15.10425        9.25454
C          9.05969       15.04813        8.99961
H          8.95889       16.12296        8.94174
C          7.94043       14.24154        8.89875
H          6.97084       14.69693        8.75995
