73
CSD_code = UGEFIV | q = 0 | S = 0 | Stoichiometry = C26H42Cl2Si2Ti | MND = 12
Ti         5.28590        3.06570        2.44075
Cl         3.61294        4.44357        2.99410
Cl         3.71005        1.50659        1.90090
Si         5.09237        4.44025        6.07177
Si         7.14861        6.43040        1.15493
C          5.65119        3.25077        4.70936
C          5.03573        1.98260        4.47501
C          5.96041        1.15015        3.79201
C          7.16099        1.88091        3.60950
C          6.96277        3.18238        4.14496
C          3.71730        1.54172        5.03091
H          3.41695        0.58645        4.60553
H          2.94168        2.27526        4.81297
H          3.79299        1.42888        6.11404
C          5.79768       -0.31397        3.51628
H          6.49378       -0.64795        2.74932
H          4.78649       -0.54150        3.18374
H          5.99394       -0.88373        4.42765
C          8.47262        1.21286        3.31408
H          8.70699        0.54091        4.14382
H          9.28696        1.92553        3.22715
H          8.43598        0.60551        2.41069
C          8.02778        4.20021        4.41603
H          8.23618        4.22819        5.48713
H          7.69860        5.19139        4.11172
H          8.95812        3.95748        3.90783
C          6.36750        4.70906        1.10793
C          7.07004        3.46480        0.94695
C          6.19523        2.52652        0.34071
C          4.98415        3.20459        0.01844
C          5.08136        4.52248        0.49758
C          8.56402        3.33797        0.92962
H          8.88282        2.30073        0.88851
H          9.03320        3.82672        1.77573
H          8.93075        3.82525        0.02262
C          6.51462        1.12890       -0.10462
H          5.71199        0.44647        0.18174
H          7.44591        0.77112        0.33011
H          6.61546        1.09668       -1.19177
C          3.88325        2.69571       -0.85986
H          2.90507        2.95948       -0.45780
H          3.92952        1.61500       -0.96689
H          3.97640        3.15027       -1.84969
C          4.05796        5.57291        0.20120
H          4.15245        5.88458       -0.84159
H          4.18220        6.44150        0.84017
H          3.04961        5.18328        0.34362
C          5.69568        6.26342        5.88528
C          5.51093        6.78617        4.50522
C          6.47394        7.30119        3.75574
C          6.29983        7.69902        2.33159
C          3.21538        4.53772        6.42166
H          3.01364        5.36679        7.09426
H          2.83933        3.63831        6.89743
H          2.64266        4.70458        5.51603
C          5.91788        3.74414        7.66055
H          7.00045        3.72421        7.58856
H          5.58962        2.72995        7.86394
H          5.65903        4.35142        8.52113
C          9.01217        6.52578        1.59276
H          9.29581        7.57298        1.64694
H          9.63518        6.06655        0.83320
H          9.26273        6.07925        2.54797
C          7.03809        7.12271       -0.63285
H          7.75920        7.92036       -0.78189
H          6.05640        7.52796       -0.85255
H          7.24552        6.35176       -1.36909
H          5.09640        6.85719        6.57819
H          6.73586        6.37654        6.19080
H          4.51140        6.70058        4.10298
H          7.47299        7.42733        4.15724
H          6.75743        8.67389        2.15701
H          5.23766        7.79435        2.11290
