55
CSD_code = UMIFUR | q = 0 | S = 0 | Stoichiometry = C19H26BrO5PSi2W | MND = 6
W          8.34948        2.51949        4.81863
Br         6.57357        3.95562        1.89099
P          8.12267        4.51543        3.37676
Si         6.22354        7.14631        3.16270
Si         8.96897        6.96871        5.01944
O          8.36824       -0.06514        6.57711
O          8.66601        0.71153        2.26541
O          7.77024        4.18271        7.41116
O         11.43229        2.40493        5.36926
O          5.21915        2.31843        4.77850
C          8.37036        0.87985        5.93449
C          8.57324        1.39901        3.17005
C          8.03954        3.59917        6.46241
C         10.33078        2.52802        5.08893
C          6.35699        2.39609        4.72486
C          7.49725        6.05302        4.14670
H          6.90228        5.65847        4.98194
C          4.52312        6.27585        3.13072
H          3.73814        6.95999        3.43926
H          4.48817        5.41986        3.79879
H          4.27386        5.91168        2.13939
C          5.94790        8.76355        4.13094
H          6.84369        9.36354        4.23342
H          5.56000        8.56976        5.12500
H          5.21143        9.36577        3.60978
C          6.83290        7.59340        1.41128
H          6.78758        6.74554        0.73508
H          7.84597        7.98441        1.40878
H          6.18988        8.36375        0.99697
C          8.30459        7.73777        6.62908
H          9.12092        8.17154        7.19768
H          7.83067        6.99211        7.26029
H          7.58157        8.52342        6.44675
C          9.70509        8.31588        3.88150
H          8.94984        9.00830        3.52781
H         10.21183        7.91335        3.01004
H         10.43659        8.89219        4.43913
C         10.39875        5.81604        5.54159
H         11.25750        6.40606        5.85065
H         10.73103        5.15482        4.74734
H         10.11955        5.19269        6.38626
C          9.37447        5.08642        2.12405
H          8.88212        5.74070        1.40014
H         10.13959        5.65104        2.65766
C          9.97629        3.88115        1.46858
C         11.03198        3.21845        2.08698
H         11.46361        3.63020        2.98883
C         11.56135        2.06499        1.53760
H         12.37875        1.56243        2.03315
C         11.03891        1.55704        0.36032
H         11.44181        0.64971       -0.06332
C         10.00385        2.22170       -0.27416
H          9.59802        1.83733       -1.19746
C          9.47646        3.37820        0.27312
H          8.67046        3.88889       -0.23337
