64
CSD_code = UQUJAS | q = 0 | S = 0 | Stoichiometry = C23H33Cl3N2OSiZr | MND = 10
Zr         2.84487        7.18295        3.12811
Cl         3.15378        8.34168        1.03206
Cl         1.82601        5.38045        2.00894
Cl         3.65694        5.71257        4.86266
Si         6.82865       11.64542        3.24296
O          4.68888        6.07986        2.10680
N          6.06203       10.07331        3.62947
N          4.58060        8.43303        3.73822
C          4.75757        9.72791        3.52501
C          6.73810        8.91631        3.93878
H          7.79636        8.90998        4.08472
C          5.82688        7.91558        4.00873
H          5.95532        6.87945        4.26556
C          3.64801       10.69070        3.32183
H          3.18316       10.49534        2.35065
H          4.04215       11.70586        3.32852
C          2.57503       10.53639        4.43915
C          1.60867       11.72874        4.36929
H          2.12762       12.65429        4.61270
H          0.80235       11.58751        5.08466
H          1.16900       11.82925        3.38345
C          3.26205       10.57629        5.81100
H          3.94831        9.74153        5.94219
H          2.51599       10.53921        6.60112
H          3.82287       11.50307        5.91714
C          1.82434        9.23868        4.23564
C          1.74269        8.16448        5.15584
H          2.22296        8.11900        6.12558
C          0.86679        7.17669        4.66705
H          0.55776        6.28262        5.19520
C          0.32035        7.65323        3.44231
C          0.92233        8.93592        3.15809
C          0.52270        9.61604        1.98818
H          0.95302       10.57013        1.71707
C         -0.42534        9.05666        1.16942
H         -0.72642        9.57873        0.27312
C         -1.01886        7.81851        1.46514
H         -1.76723        7.42220        0.79526
C         -0.65804        7.11554        2.58482
H         -1.11372        6.16279        2.81932
C          6.25714       12.92673        4.53338
H          5.27837       13.34272        4.31461
H          6.95436       13.75847        4.56435
H          6.21887       12.49833        5.53161
C          8.70224       11.37645        3.42389
H          8.98228       11.10796        4.43850
H          9.22997       12.29254        3.17777
H          9.07276       10.60368        2.75673
C          6.36502       12.04665        1.44383
H          6.95743       11.45608        0.74985
H          6.54831       13.09218        1.21653
H          5.32193       11.83726        1.22736
C          4.80947        4.65380        2.07246
H          4.33677        4.24781        2.96880
H          4.30043        4.26865        1.17832
C          6.31822        4.39995        2.00020
H          6.54187        3.47153        1.48062
H          6.73501        4.34362        3.00495
C          6.84715        5.63788        1.25633
H          7.26679        5.38533        0.28492
H          7.61295        6.14723        1.83972
C          5.59979        6.52346        1.10224
H          5.79677        7.58719        1.25354
H          5.14196        6.38390        0.11303
