69
CSD_code = UVEXIE | q = 0 | S = 0 | Stoichiometry = C26H35I2N2PSi2Zr | MND = 5
I          7.39143       14.52621        5.48248
I         10.38906       11.90019        5.15067
Zr         8.43387       12.90327        3.34870
P          6.31266       13.96781        2.01340
Si         7.86594        9.62909        2.75616
Si        10.64091       14.33125        1.61938
N          7.34280       11.20845        3.21291
N          9.20159       13.39733        1.48958
C          5.12587       12.52101        2.07865
H          4.13814       12.82354        1.71901
H          5.54792       11.74968        1.42163
C          5.06845       12.01391        3.49006
C          6.22067       11.39975        4.02197
C          6.22132       11.01562        5.36771
H          7.12012       10.57382        5.78151
C          5.10122       11.20320        6.15505
H          5.12351       10.91147        7.19354
C          3.95603       11.76559        5.61503
H          3.07725       11.90158        6.22543
C          3.94731       12.17213        4.29128
H          3.05727       12.62089        3.87139
C          6.70044       13.97660        0.20692
H          5.77198       13.99004       -0.37438
H          7.26032       14.90096        0.01212
C          7.56703       12.82144       -0.20463
C          8.84371       12.65367        0.37544
C          9.72556       11.75767       -0.23995
H         10.74073       11.69893        0.12562
C          9.32569       10.96544       -1.29692
H         10.02688       10.27516       -1.74201
C          8.03358       11.05521       -1.78530
H          7.70744       10.42309       -2.59664
C          7.17556       12.00182       -1.25154
H          6.18827       12.12653       -1.67633
C          5.14894       15.37051        2.17767
C          5.04607       16.39124        1.23744
H          5.64060       16.37490        0.33632
C          4.17369       17.44496        1.44674
H          4.09744       18.22821        0.70676
C          3.40711       17.50098        2.59805
H          2.73151       18.32757        2.75780
C          3.51951       16.49907        3.54825
H          2.93812       16.54291        4.45638
C          4.38910       15.44485        3.34483
H          4.48344       14.67713        4.09922
C          9.71283        9.80102        2.28046
H         10.00504       10.84730        2.16334
H          9.90557        9.29545        1.34004
H         10.35961        9.35106        3.02841
C          6.86107        9.04212        1.23241
H          5.79923        8.98653        1.45431
H          7.18172        8.05213        0.92770
H          6.99407        9.70457        0.38134
C          7.68882        8.29666        4.11925
H          8.34622        8.48187        4.96420
H          7.93492        7.31664        3.72366
H          6.67033        8.25336        4.49344
C         12.30300       13.41504        1.92294
H         12.20716       12.54960        2.57593
H         13.02797       14.08110        2.38170
H         12.73350       13.07143        0.98587
C         10.85355       15.44632        0.08286
H         10.83200       14.85041       -0.82409
H         11.80104       15.97199        0.11115
H         10.06528       16.18903        0.00786
C         10.21882       15.41367        3.15645
H          9.18535       15.77962        3.12469
H         10.85578       16.29434        3.16538
H         10.40047       14.90550        4.10901
