81
CSD_code = UWODOB | q = 0 | S = 0 | Stoichiometry = C26H49O3ScSi2 | MND = 8
Sc        -1.03742        4.31268        9.48018
O          0.31067       -0.12054        6.34093
O         -1.05049        1.12876        4.97294
O         -2.32786        6.08036       10.48926
Si         0.56563        6.44060        6.94464
Si         0.86783        4.18242       12.51583
C         -0.95442        5.52558        7.58830
H         -1.26860        4.84894        6.77592
H         -1.77402        6.26149        7.68200
C          0.32037        7.21668        5.20410
H          0.05527        6.45899        4.47275
H          1.22251        7.70796        4.85185
H         -0.47401        7.95750        5.20748
C          2.04575        5.23271        6.81581
H          2.29347        4.81061        7.78626
H          2.93313        5.72834        6.43509
H          1.82084        4.41068        6.14260
C          1.06395        7.88709        8.10256
H          0.24238        8.58191        8.25064
H          1.89107        8.45091        7.68341
H          1.37821        7.52645        9.07740
C          0.82221        4.66145       10.68873
H          1.68976        4.18687       10.20581
H          1.03157        5.74078       10.63069
C         -0.87438        4.39969       13.30654
H         -0.97168        5.36763       13.79082
H         -1.06847        3.64419       14.06122
H         -1.65824        4.32386       12.55150
C          1.43715        2.36836       12.75719
H          0.84651        1.67439       12.16760
H          1.35901        2.06472       13.79670
H          2.47432        2.24637       12.46007
C          2.05881        5.25837       13.56993
H          3.08711        5.13913       13.24338
H          2.01729        4.99413       14.62236
H          1.81270        6.31320       13.48726
C          1.25616        0.73625        4.31242
H          1.04767        0.95445        3.26950
H          2.06111        0.01164        4.38624
H          1.55659        1.65081        4.81715
C         -0.49157       -1.08788        4.26046
H         -1.35510       -1.49085        4.78297
H          0.29813       -1.83262        4.24611
H         -0.77919       -0.83173        3.24550
C          0.00040        0.16940        4.98132
C         -3.64242        1.26170        6.39483
H         -3.58050        0.94437        5.35676
H         -4.58892        1.77217        6.55432
H         -3.62019        0.38603        7.03847
C          1.08765        1.51844        8.58925
H          1.08341        2.49121        8.09123
H          1.80078        0.86892        8.08607
H          1.40056        1.65754        9.62228
C         -0.30291        0.87593        8.54643
H         -0.27242       -0.02096        9.17733
C         -0.70536        0.46144        7.13249
H         -1.54961       -0.24280        7.19814
C         -1.12737        1.65825        6.27912
H         -0.37358        2.45967        6.38622
C         -2.48062        2.21050        6.71174
H         -2.66861        3.14782        6.17409
C         -2.34674        2.44285        8.20056
C         -3.25489        3.13787        9.03404
H         -4.17689        3.59742        8.70090
C         -2.88127        2.91045       10.37533
H         -3.48312        3.13930       11.24668
C         -1.72307        2.09722       10.37446
H         -1.29359        1.62145       11.24589
C         -1.39573        1.80200        9.02953
C         -3.74906        6.30251       10.50181
H         -4.22783        5.49825       11.06612
H         -4.11080        6.27500        9.46644
C         -3.98293        7.67634       11.12597
H         -4.87410        8.15797       10.73177
H         -4.07516        7.59350       12.20908
C         -2.69283        8.40433       10.76131
H         -2.48022        9.25081       11.40867
H         -2.72789        8.74560        9.72641
C         -1.66950        7.28572       10.91395
H         -0.78301        7.42295       10.29250
H         -1.36679        7.16934       11.96191
