81
CSD_code = UWODUH | q = 0 | S = 0 | Stoichiometry = C26H49O3Si2Y | MND = 8
Y          5.30405        1.93507        4.52111
O          4.92304        5.19182       -0.24679
O          6.27703        6.46507        1.10591
O          3.82036        0.01119        5.73993
Si         7.11101        2.18776        7.59717
Si         6.46133       -0.15792        1.81061
C          7.23227        1.52624        5.83241
H          7.40135        0.44345        5.88350
H          8.13236        1.94197        5.36278
C          7.46614        4.06812        7.63573
H          8.49553        4.27236        7.35905
H          7.30890        4.47766        8.62844
H          6.82754        4.61694        6.95036
C          8.31883        1.36576        8.83811
H          8.15075        0.29499        8.90035
H          8.20852        1.77345        9.83818
H          9.35013        1.51627        8.53548
C          5.33797        1.87074        8.26073
H          4.58250        2.34113        7.63199
H          5.21629        2.26009        9.26710
H          5.12452        0.80600        8.29835
C          4.94936        0.68455        2.55401
H          4.17271       -0.06507        2.75060
H          4.52609        1.36134        1.80280
C          7.85090        1.14973        1.62331
H          7.52566        1.97047        0.99004
H          8.73941        0.72528        1.16674
H          8.14232        1.56265        2.58887
C          7.08601       -1.52741        3.00024
H          7.34860       -1.11816        3.97258
H          7.96927       -2.01673        2.60330
H          6.33212       -2.29431        3.15042
C          6.19900       -0.97507        0.09729
H          5.43852       -1.74870        0.14142
H          7.11040       -1.43270       -0.27520
H          5.87653       -0.24283       -0.63618
C          4.25688        4.24926        5.15498
H          4.67793        4.72793        6.03073
C          3.09746        3.42100        5.15273
H          2.53916        3.12532        6.03211
C          2.66971        3.28356        3.82156
H          1.78204        2.76627        3.48991
C          3.53730        4.01894        2.99465
C          4.51763        4.62251        3.80865
C          5.61351        5.54655        3.32989
H          5.62634        6.45815        3.94131
C          5.23815        5.92426        1.89869
H          4.40450        6.64251        1.93097
C          4.80768        4.70921        1.07528
H          5.54053        3.89386        1.22323
C          3.43492        4.19902        1.49992
H          3.24837        3.23788        1.00489
C          2.29511        5.14465        1.10961
H          1.33945        4.66522        1.30666
H          2.36277        5.38389        0.05085
H          2.33416        6.06495        1.68690
C          7.01283        4.92102        3.41434
H          7.05020        3.96625        2.88007
H          7.29174        4.75987        4.45673
H          7.73438        5.59633        2.95811
C          5.96900        6.15644       -0.24853
C          7.22802        5.58624       -0.90880
H          8.02955        6.31574       -0.84609
H          7.02043        5.35118       -1.94818
H          7.53248        4.68055       -0.39058
C          5.47311        7.40222       -0.98781
H          4.60566        7.80733       -0.47345
H          5.18943        7.13115       -2.00002
H          6.25888        8.15110       -1.00998
C          4.31645       -1.30868        5.95366
H          4.44061       -1.49012        7.03084
H          5.28131       -1.39031        5.45090
C          3.23763       -2.21755        5.37503
H          3.31386       -2.22834        4.28760
H          3.30240       -3.23653        5.74705
C          1.96067       -1.49947        5.81958
H          1.61620       -1.88975        6.77648
H          1.15634       -1.60793        5.09642
C          2.40538       -0.03287        5.96600
H          1.93938        0.62501        5.22891
H          2.18865        0.34760        6.97184
