113
CSD_code = UWOQIH | q = 0 | S = 0 | Stoichiometry = C42H64N4PSiV | MND = 4
V          2.68873        3.14699       10.05844
P          2.67174        0.87462        9.80571
Si         1.25019        2.00440       13.02973
N          4.01098        3.46808       10.93146
N          2.29349        4.38872        8.95077
N          1.93702        5.05329        6.71074
N          2.07459        6.65263        8.22411
C          2.12845        5.27096        8.07543
C          1.78263        6.26640        6.06642
C          1.86772        7.23967        6.99031
C          2.25483        7.35326        9.44131
C          1.16849        7.50704       10.30530
C          1.35933        8.22169       11.48029
C          2.59224        8.76495       11.78346
C          3.66206        8.59003       10.92561
C          3.51363        7.88530        9.74026
C          1.94199        3.76882        6.12058
C          0.73279        3.08031        5.97726
C          0.76387        1.80216        5.43717
C          1.95891        1.23263        5.03835
C          3.14478        1.92851        5.18076
C          3.15899        3.20601        5.72591
C          5.05355        3.93670       11.61494
C          6.36175        3.42744       11.42834
C          7.41830        3.95723       12.14712
C          7.22806        4.98679       13.05138
C          5.95046        5.49054       13.24526
C          4.86745        4.98790       12.55342
C          3.48350        5.51214       12.77962
C          6.59778        2.31160       10.44996
C          4.68659        7.63859        8.82192
C          5.44132        6.40162        9.31880
C          5.62590        8.84028        8.71514
C         -0.17247        6.88745        9.99211
C         -1.30010        7.92023       10.04540
C         -0.43296        5.73171       10.96115
C          4.45774        3.95216        5.91851
C          5.28518        3.99360        4.63231
C          5.24926        3.31462        7.06330
C         -0.56109        3.70450        6.44629
C         -0.90094        3.16930        7.84036
C         -1.71631        3.46721        5.47324
C          1.46301        2.31551       11.19809
C          2.92087        1.89551       13.95949
C          0.25189        0.39719       13.41147
C          0.19526        3.40690       13.81183
C          1.15496       -0.11441        9.45659
C          3.67417        0.16822        8.37099
C          3.45404       -0.10420       11.14163
H          1.62561        6.31808        5.00819
H          1.79329        8.30330        6.88908
H          0.53772        8.35217       12.16750
H          2.72403        9.32147       12.70000
H          4.62340        9.00093       11.18845
H         -0.15194        1.24193        5.32704
H          1.96609        0.23632        4.61995
H          4.07048        1.46767        4.87059
H          8.41003        3.55366       11.99119
H          8.06421        5.39191       13.60203
H          5.79347        6.29319       13.95361
H          2.94601        5.56261       11.82791
H          3.51104        6.49617       13.24189
H          2.93519        4.82990       13.43044
H          7.29137        2.62592        9.66948
H          5.64982        2.02720        9.98935
H          7.02843        1.44387       10.95174
H          4.30689        7.42771        7.81647
H          6.26250        6.16515        8.64555
H          4.77020        5.54254        9.37906
H          5.84808        6.57861       10.31179
H          6.34582        8.67331        7.91667
H          6.18108        8.98851        9.63723
H          5.06844        9.74791        8.49231
H         -0.14381        6.47782        8.97729
H         -1.08356        8.75690        9.38404
H         -1.43373        8.30478       11.05289
H         -2.23669        7.46489        9.73007
H         -0.50257        6.09883       11.98218
H          0.38492        5.00674       10.90876
H         -1.36708        5.23233       10.71054
H          4.23191        4.98451        6.20254
H          4.69616        4.39623        3.81059
H          5.63313        3.00257        4.35260
H          6.15650        4.62884        4.77521
H          6.15779        3.88207        7.25181
H          5.52684        2.29301        6.81089
H          4.64642        3.30730        7.97828
H         -0.41371        4.78670        6.52711
H         -0.07141        3.35651        8.52469
H         -1.08832        2.09721        7.80016
H         -1.79105        3.66039        8.22864
H         -2.57549        4.06500        5.77011
H         -2.02230        2.42408        5.46528
H         -1.43056        3.75236        4.46285
H          0.48447        2.33417       10.69072
H          3.19080        0.87112       14.19853
H          2.88865        2.44645       14.89448
H          3.71643        2.31877       13.35348
H         -0.73609        0.43515       12.96011
H          0.11276        0.27558       14.48157
H          0.74164       -0.50176       13.04586
H          0.09191        3.25972       14.88280
H         -0.80356        3.43203       13.38659
H          0.64585        4.38038       13.64975
H          0.46747       -0.05202       10.29801
H          1.42335       -1.15660        9.28035
H          0.66698        0.28005        8.56400
H          4.71613        0.46795        8.48381
H          3.29287        0.59110        7.43971
H          3.62245       -0.92038        8.31546
H          4.30136        0.45682       11.53186
H          3.79113       -1.06820       10.75819
H          2.73950       -0.25180       11.94579
