128
CSD_code = UZUFOM | q = 0 | S = 0 | Stoichiometry = C53H70O3SiW | MND = 9
W          2.93855        1.53156       11.17629
Si         3.72640        3.43711       12.54847
O          4.05883        2.48939       13.82976
C          3.77907        1.12312       13.36096
C          3.78764        5.28602       13.06249
C          1.59244        2.87525       10.69550
O          0.72872        3.58405       10.37825
C          1.20850        1.32332       12.07441
O          0.10671        1.18163       12.40933
C          2.76702        5.89426       13.81055
C          2.73097        7.27595       13.98206
C          3.71333        8.09704       13.46944
H          3.67854        9.16489       13.62292
C          4.74327        7.51087       12.76138
C          4.76679        6.14073       12.53248
C          1.67110        5.25162       14.64729
C          0.74370        6.43935       14.98512
H          0.38228        6.37408       16.00795
H         -0.12349        6.41978       14.33076
C          1.52149        7.74599       14.74598
C          5.91581        8.24242       12.16174
C          6.71753        7.11490       11.48014
H          7.72950        7.07838       11.87964
H          6.80157        7.30663       10.41172
C          5.99061        5.76543       11.72039
C         -0.53166        3.87785       14.33411
H         -0.64850        3.84468       15.41177
H         -0.85137        2.92238       13.92535
H         -1.19655        4.64200       13.93972
C          0.92087        4.12096       13.92101
H          0.92299        4.34016       12.85053
H          1.46437        3.18658       14.07011
C          2.41112        4.73812       15.90510
H          3.16289        4.02157       15.57097
H          2.94913        5.58086       16.34655
C          1.54979        4.08982       16.98107
H          0.78780        4.77209       17.35159
H          2.17909        3.80764       17.82373
H          1.06577        3.19459       16.60488
C          0.83766        9.00597       16.89624
H          0.38157        9.85474       16.39403
H          1.22787        9.34967       17.85204
H          0.06403        8.26796       17.09305
C          1.96864        8.41306       16.06272
H          2.49718        7.66983       16.66292
H          2.68281        9.20588       15.82803
C          0.70661        8.74434       13.89866
H          1.20271        9.71734       13.92195
H         -0.27832        8.86238       14.35408
C          0.53200        8.32262       12.44280
H          1.48919        8.29953       11.92749
H         -0.11798        9.02804       11.92919
H          0.08718        7.33366       12.36708
C          6.47654       10.09553       10.44429
H          6.97654       10.76346       11.14026
H          6.02797       10.70248        9.66053
H          7.22519        9.45275        9.98755
C          5.39494        9.27865       11.14349
H          4.80208        8.75297       10.39196
H          4.71920        9.96480       11.65810
C          6.71923        8.97129       13.25697
H          7.64283        9.35609       12.82087
H          6.13150        9.82665       13.59768
C          7.06743        8.11352       14.46777
H          6.17381        7.66346       14.89356
H          7.54154        8.72827       15.23018
H          7.76083        7.32002       14.20180
C          8.08913        4.25902       11.85250
H          7.80442        3.58098       11.05234
H          8.70241        3.70534       12.56024
H          8.69772        5.05360       11.42663
C          6.86678        4.82353       12.56648
H          7.19156        5.37066       13.45287
H          6.24659        4.00044       12.92389
C          5.61780        5.11366       10.37704
H          6.49940        5.12259        9.73148
H          5.33870        4.07263       10.55067
C          4.46678        5.80897        9.66136
H          3.55334        5.74402       10.24693
H          4.28746        5.34586        8.69468
H          4.69244        6.85785        9.49083
C          5.07542        0.38011       13.41923
C          6.25213        0.99364       12.98408
H          6.20844        1.98685       12.56603
C          7.47737        0.36332       13.08546
H          8.36857        0.87054       12.74197
C          7.56842       -0.90847       13.62600
H          8.52541       -1.40211       13.70755
C          6.41497       -1.53087       14.07058
H          6.46927       -2.51729       14.50855
C          5.18953       -0.89749       13.97580
H          4.31386       -1.39816       14.35982
C          2.74885        0.49684       14.24566
C          2.47811        0.98877       15.51730
H          3.03026        1.84160       15.87609
C          1.52805        0.38525       16.32276
H          1.32840        0.78568       17.30656
C          0.84683       -0.73471       15.88311
H          0.10380       -1.20375       16.51105
C          1.13509       -1.25909       14.63305
H          0.62031       -2.14366       14.28615
C          2.07681       -0.65312       13.82618
H          2.29733       -1.07057       12.85383
C          4.71551        0.79662        9.76649
C          3.69123        1.40361        8.97866
C          2.50575        0.60731        9.10406
C          2.80522       -0.49499        9.95367
C          4.16847       -0.39451       10.34783
C          6.18198        1.09741        9.63315
H          6.57669        0.59232        8.74769
H          6.74178        0.74675       10.49682
H          6.36240        2.16484        9.51505
C          3.87972        2.49611        7.96777
H          4.77430        3.07682        8.17846
H          3.02432        3.17058        7.94650
H          3.98802        2.05817        6.97256
C          1.25883        0.74811        8.28264
H          1.09002        1.78356        7.99157
H          0.38633        0.40102        8.83461
H          1.34376        0.14919        7.37258
C          1.91071       -1.68485       10.14250
H          1.82377       -2.23099        9.20037
H          0.90841       -1.38593       10.44904
H          2.31048       -2.36783       10.88890
C          4.96375       -1.53843       10.90052
H          4.46894       -2.01650       11.74450
H          5.95152       -1.22400       11.22521
H          5.08762       -2.28871       10.11520
