125
CSD_code = VAQDOJ | q = 0 | S = 0 | Stoichiometry = C49H70N2OPSiY | MND = 5
Y         14.15847        7.30631        5.23313
P         14.83318        5.22146        3.09146
Si        11.09060        8.78354        3.65835
O         14.22241        5.65923        6.59352
N         14.85786        9.39802        6.12114
N         15.65713        8.26949        3.59433
C         14.29698       11.78598        5.99939
H         13.27999       11.73880        6.38731
H         14.35416       12.60124        5.28296
H         14.95517       12.00100        6.83860
C         14.64597       10.45990        5.35694
C         14.76274       10.45291        3.96593
H         14.50708       11.37904        3.47203
C         15.35425        9.47737        3.15354
C         15.71554        9.94300        1.75680
H         16.77674       10.19137        1.71111
H         15.15318       10.83757        1.50565
H         15.50825        9.18580        1.00367
C         16.46632        7.40880        2.74737
H         17.11665        6.80683        3.39924
H         17.12100        7.98391        2.08223
C         15.58849        6.45608        1.92201
H         16.16968        5.96675        1.13770
H         14.77151        7.00921        1.44925
C         13.58809        4.48395        1.97041
C         12.50183        5.28902        1.63403
H         12.44607        6.29641        2.02555
C         11.49581        4.80299        0.82178
H         10.65989        5.43619        0.56240
C         11.55561        3.50119        0.34964
H         10.76937        3.11796       -0.28363
C         12.61989        2.68903        0.70219
H         12.66245        1.67001        0.34614
C         13.63154        3.17244        1.51409
H         14.45192        2.52696        1.79185
C         16.10105        3.89482        3.13618
C         16.92791        3.54391        2.07252
H         16.86066        4.05749        1.12431
C         17.83727        2.51099        2.21192
H         18.47499        2.24574        1.38082
C         17.93009        1.81310        3.40598
H         18.64551        1.01026        3.50612
C         17.09931        2.14454        4.46253
H         17.15363        1.60637        5.39672
C         16.19006        3.17844        4.32663
H         15.54217        3.43507        5.15195
C         15.16963        9.65157        7.48153
C         16.51076        9.94373        7.79943
C         16.83927       10.23678        9.11395
H         17.85730       10.48796        9.36892
C         15.88211       10.21095       10.11140
H         16.15657       10.43897       11.13077
C         14.57678        9.88948        9.79880
H         13.83693        9.86281       10.58440
C         14.19725        9.62426        8.49002
C         17.57784        9.93116        6.72379
H         17.22062        9.28587        5.91106
C         17.81007       11.33413        6.15143
H         16.94750       11.67370        5.58712
H         18.66888       11.32309        5.48272
H         18.00749       12.04337        6.95357
C         18.91308        9.37940        7.23213
H         19.42910       10.11054        7.85053
H         19.55983        9.14444        6.38841
H         18.76930        8.47580        7.81928
C         12.75214        9.30056        8.18202
H         12.63312        9.22295        7.09096
C         11.80666       10.39470        8.68643
H         11.78941       10.42484        9.77302
H         10.79397       10.20065        8.33822
H         12.11375       11.37419        8.32605
C         12.37472        7.95252        8.80341
H         13.01301        7.16116        8.41248
H         11.33833        7.70847        8.57731
H         12.49187        7.98252        9.88454
C         14.60879        4.48844        7.07531
C         13.72131        3.36782        7.10161
C         14.18864        2.14801        7.56164
H         13.54023        1.28835        7.57306
C         15.48175        1.98122        8.01342
H         15.81962        1.01441        8.35760
C         16.33175        3.06777        8.03743
H         17.32975        2.91822        8.41415
C         15.92872        4.31549        7.59377
C         12.27991        3.46587        6.60038
C         11.55621        4.63231        7.28177
H         10.52962        4.69988        6.92529
H         12.06402        5.56638        7.06367
H         11.54246        4.48405        8.35986
C         12.30277        3.67327        5.08125
H         11.29092        3.74466        4.68495
H         12.80639        2.84024        4.59169
H         12.83592        4.59331        4.84565
C         11.45063        2.20445        6.87858
H         11.43303        1.97038        7.94043
H         11.82586        1.34566        6.32682
H         10.42567        2.38025        6.55585
C         16.89781        5.49426        7.68170
C         17.22958        6.01656        6.27562
H         17.61256        5.20206        5.65958
H         17.98608        6.79717        6.33072
H         16.33477        6.43709        5.79365
C         16.25753        6.59153        8.54043
H         15.35208        6.97339        8.07123
H         16.94206        7.42338        8.68766
H         15.99311        6.18819        9.51630
C         18.23540        5.12821        8.34118
H         18.08729        4.75228        9.35029
H         18.85628        6.02039        8.40711
H         18.77866        4.38858        7.75721
C         11.86120        7.45615        4.75699
H         11.56650        6.48633        4.33270
H         11.33170        7.50750        5.71970
C         12.02267        9.00843        1.99496
H         13.08244        8.80076        2.10891
H         11.93043       10.02910        1.63738
H         11.63039        8.35988        1.21728
C          9.27862        8.36042        3.18131
H          9.21335        7.38320        2.71194
H          8.86426        9.08544        2.48732
H          8.63718        8.34199        4.05667
C         11.04270       10.48625        4.52751
H         10.70032       10.40091        5.55394
H         10.36906       11.16664        4.01551
H         12.02527       10.94277        4.53851
