53
CSD_code = VECJAQ | q = 0 | S = 0 | Stoichiometry = C18H24ClO6PSi2W | MND = 6
C          4.12593        0.33844        1.93843
H          4.66680       -0.60183        1.78636
C          1.85491        2.02483        0.46946
H          1.44041        2.27569       -0.50230
H          2.27423        2.93204        0.89173
H          1.03316        1.71502        1.10629
C          2.40345       -0.97853       -0.35863
H          2.49495       -1.04170       -1.43876
H          1.34930       -1.05751       -0.11316
H          2.90157       -1.84743        0.06285
C          4.44495        1.17562       -1.02115
H          4.98573        2.07545       -0.75425
H          3.93906        1.36531       -1.96140
H          5.17372        0.39206       -1.19963
C          4.96151        3.39411        2.06006
H          4.77915        3.51886        0.99878
H          5.76079        4.07477        2.33560
H          4.06944        3.70936        2.59148
C          5.82905        1.59784        4.38121
H          6.77520        2.09575        4.57472
H          5.90704        0.59157        4.78394
H          5.06825        2.12221        4.95047
C          7.06940        1.10041        1.61442
H          7.85513        1.82099        1.81369
H          6.94094        1.04466        0.53960
H          7.42280        0.13186        1.95519
C          0.57386       -1.04936        2.96754
C         -0.30779       -0.31779        3.75094
H         -0.09310        0.71557        3.97677
C         -1.45256       -0.92454        4.23720
H         -2.13263       -0.35743        4.85420
C         -1.72019       -2.25039        3.94304
H         -2.60886       -2.72176        4.33359
C         -0.84719       -2.97020        3.14502
H         -1.05422       -4.00238        2.90675
C          0.29982       -2.37368        2.65259
H          0.97998       -2.91908        2.01741
C          4.05675       -3.18450        6.24907
C          1.70877       -1.93031        5.60028
C          3.34447       -3.13222        3.52755
C          5.48526       -1.76566        4.31477
C          3.87691       -0.36937        6.36405
Cl         2.47072        1.71778        4.00949
O          1.70212       -0.45385        2.42755
O          4.30897       -4.01872        6.98775
O          0.69013       -2.14369        6.07126
O          3.29305       -3.92228        2.70160
O          6.54289       -1.89884        3.89814
O          4.00803        0.40539        7.19081
P          3.00942       -0.06556        3.29833
Si         3.16417        0.65205        0.29258
Si         5.46432        1.60939        2.50818
W          3.59312       -1.75878        4.94914
