143
CSD_code = VEDHOC | q = 0 | S = 0 | Stoichiometry = C42H88ClN6OSi4Y | MND = 6
Y          4.66723        6.26282        4.78372
Cl         5.25107        8.65135        5.08752
Si         0.98413        5.15090        8.24327
Si         1.79122        8.18091        8.46073
Si         6.73669        3.82957        0.75590
Si         3.70589        4.34339        0.11935
O          7.23620        6.00364        5.40451
N          4.07460        5.96065        6.96330
N          2.54285        6.54247        5.46007
N          1.89421        6.56884        7.76246
N          5.12046        6.33746        2.56136
N          4.73638        4.37224        3.51182
N          5.12718        4.40029        1.14487
C          2.83586        6.37282        6.73813
C          4.58139        5.81397        8.31365
H          3.78230        6.00942        9.03867
C          5.10654        4.38886        8.53039
H          5.84464        4.16789        7.75357
H          4.28252        3.68200        8.42032
C          5.73618        4.23812        9.91199
H          4.97227        4.40263       10.67583
H          6.11722        3.22125       10.03590
C          6.86385        5.24578       10.11055
H          7.65993        5.04730        9.38819
H          7.28885        5.13666       11.11116
C          6.34089        6.66562        9.91640
H          5.59053        6.87656       10.68180
H          7.15439        7.38461       10.03956
C          5.71577        6.82290        8.53454
H          6.46957        6.65997        7.76060
H          5.32639        7.83404        8.39850
C          1.25689        7.04217        5.02005
H          0.70589        7.47073        5.86988
C          0.42348        5.91019        4.40358
H          0.23843        5.14726        5.16125
H          1.00621        5.45080        3.60208
C         -0.89459        6.44120        3.84910
H         -1.49040        6.86149        4.66378
H         -1.46685        5.62180        3.40715
C         -0.64069        7.52327        2.80419
H         -0.09314        7.09136        1.96404
H         -1.59120        7.90687        2.42570
C          0.17815        8.65931        3.40960
H         -0.39370        9.12871        4.21423
H          0.37661        9.42111        2.65265
C          1.49572        8.13130        3.96704
H          2.09800        7.69700        3.16059
H          2.07571        8.94366        4.41078
C          1.62275        3.61991        7.29925
H          0.87079        3.21681        6.62710
H          1.90550        2.82295        7.98142
H          2.49403        3.88255        6.70632
C         -0.88759        5.35046        7.90768
H         -1.37483        5.87993        8.71867
H         -1.36198        4.37650        7.83120
H         -1.09709        5.89072        6.99123
C          1.18487        4.84154       10.11810
H          2.21516        4.65270       10.40385
H          0.60021        3.97594       10.41373
H          0.82727        5.68632       10.69739
C          2.53006        9.50105        7.31549
H          3.38510        9.12676        6.75936
H          2.86778       10.36050        7.88768
H          1.80299        9.86031        6.59320
C         -0.04966        8.57196        8.77632
H         -0.66948        8.42929        7.89793
H         -0.14939        9.60807        9.08259
H         -0.45738        7.95888        9.57223
C          2.66646        8.28483       10.16057
H          2.50319        7.40206       10.77012
H          2.28206        9.13655       10.71405
H          3.73773        8.42422       10.05860
C          4.99112        5.03609        2.39495
C          5.51181        7.22875        1.48661
H          5.55591        6.67919        0.53615
C          4.49823        8.37330        1.36767
H          4.43061        8.87051        2.33998
H          3.51683        7.96499        1.11986
C          4.92506        9.37684        0.30121
H          4.95644        8.88236       -0.67407
H          4.19158       10.18393        0.24291
C          6.30127        9.94779        0.62449
H          6.25416       10.47697        1.57789
H          6.60426       10.65938       -0.14732
C          7.32179        8.81982        0.72828
H          7.40236        8.31410       -0.23829
H          8.30511        9.22688        0.97609
C          6.89256        7.82203        1.79835
H          6.82569        8.33042        2.76368
H          7.62200        7.01237        1.88223
C          4.41352        2.96154        3.51726
H          4.76934        2.48406        2.59247
C          5.09499        2.30406        4.72233
H          4.80886        2.86420        5.61930
H          6.17881        2.38148        4.60651
C          4.69816        0.83876        4.86922
H          5.03635        0.28261        3.99085
H          5.19041        0.40988        5.74542
C          3.18546        0.70316        5.00083
H          2.91099       -0.35013        5.09517
H          2.85218        1.22180        5.90153
C          2.50215        1.31551        3.78335
H          1.41726        1.23228        3.88152
H          2.79877        0.76045        2.88896
C          2.89226        2.78171        3.62824
H          2.42035        3.20394        2.74016
H          2.54869        3.35558        4.49313
C          7.81258        3.88689        2.32666
H          7.48201        4.69288        2.97483
H          8.85826        4.04859        2.08003
H          7.74663        2.95989        2.88830
C          7.59640        4.88064       -0.58889
H          6.98068        4.98703       -1.47511
H          8.52198        4.40105       -0.89399
H          7.84549        5.87766       -0.24067
C          6.64796        2.03831        0.10607
H          6.04646        1.38989        0.73436
H          7.64562        1.61421        0.05539
H          6.23368        2.00618       -0.89561
C          2.29084        5.33979        0.91809
H          2.57638        5.66873        1.91451
H          1.38157        4.75088        1.00271
H          2.04944        6.22171        0.33158
C          3.13545        2.54091       -0.16124
H          3.82798        2.00311       -0.79911
H          2.16905        2.53103       -0.65635
H          3.03608        1.97980        0.76148
C          4.08371        5.07427       -1.60335
H          4.48463        6.08173       -1.55462
H          3.17300        5.11378       -2.19279
H          4.79189        4.45828       -2.14772
C          8.00788        4.88647        5.83774
H          7.53425        3.98369        5.45011
H          8.00960        4.84831        6.93670
C          9.44216        5.09994        5.31458
H         10.16542        4.96887        6.11816
H          9.68270        4.39732        4.52015
C          9.42755        6.54714        4.80130
H         10.30684        7.11086        5.10261
H          9.35107        6.56929        3.71487
C          8.14848        7.10410        5.42225
H          8.32935        7.41500        6.46133
H          7.69729        7.93198        4.87675
