125
CSD_code = VEJSOV | q = 0 | S = 0 | Stoichiometry = C50H68CoN2P3Si | MND = 5
Co        15.27861        3.37779        7.51793
P         17.37010        3.69936        6.53394
P         13.39492        3.34892        6.18102
P         15.32247        2.77680        9.75123
Si        15.19799        1.14509        7.18359
N         15.14810        4.98477        7.85716
N         15.06050        6.08280        8.07771
C         17.37543        3.86635        4.69126
C         18.15642        5.30806        6.92065
C         19.29176        5.42253        7.71478
C         19.80703        6.67014        8.01999
C         19.19066        7.81581        7.54644
C         18.05736        7.71017        6.75682
C         17.54367        6.46572        6.44695
C         18.80500        2.57999        6.73527
C         18.71505        1.51879        7.62495
C         19.77800        0.65029        7.79747
C         20.94603        0.83650        7.07924
C         21.04744        1.89847        6.19401
C         19.98633        2.76716        6.02250
C         12.06844        4.64393        6.41539
C         11.67537        4.71451        7.88836
C         10.59426        5.76707        8.11530
C         11.06211        7.13024        7.61689
C         11.42209        7.05101        6.13726
C         12.52257        6.01621        5.91525
C         13.53500        3.33292        4.30842
C         12.21897        3.33652        3.53182
C         12.49734        3.35278        2.02840
C         13.33520        2.14948        1.61147
C         14.64239        2.12823        2.39580
C         14.35365        2.11515        3.89287
C         12.52748        1.76827        6.44484
C         11.16680        1.56046        6.25488
C         10.62753        0.30043        6.44957
C         11.44302       -0.75392        6.82450
C         12.79691       -0.54146        7.02036
C         13.35250        0.71418        6.84320
C         16.18730        0.04530        5.92277
C         15.58082        0.22877        8.83377
C         15.80549       -1.13485        8.93097
C         16.20225       -1.70995       10.12532
C         16.40197       -0.91294       11.24014
C         16.17458        0.44985       11.16593
C         15.75017        1.01910        9.97037
C         16.49686        3.62868       10.92331
C         17.91580        3.45621       10.39207
C         18.93233        4.14820       11.29409
C         18.58739        5.62359       11.46952
C         17.17568        5.77170       12.02693
C         16.17205        5.11187       11.08563
C         13.70027        2.85954       10.68474
C         13.74983        2.56816       12.18292
C         12.34955        2.68343       12.78528
C         11.38661        1.71363       12.10926
C         11.33506        1.99400       10.61153
C         12.73157        1.89118       10.00955
H         17.40201        2.87359        4.24642
H         16.46246        4.36855        4.37867
H         18.23496        4.44295        4.35271
H         19.78204        4.53534        8.09036
H         20.69340        6.74633        8.63380
H         19.59141        8.78811        7.79285
H         17.57044        8.60047        6.38636
H         16.65544        6.38761        5.83494
H         17.80168        1.37403        8.18133
H         19.69027       -0.17230        8.49268
H         21.77816        0.15981        7.20817
H         21.96051        2.05034        5.63610
H         20.08527        3.60009        5.34141
H         11.18592        4.33867        5.84080
H         11.31090        3.73695        8.21192
H         12.55543        4.96379        8.48584
H          9.68579        5.47712        7.57994
H         10.34982        5.82096        9.17876
H         10.27922        7.87560        7.77360
H         11.94284        7.43940        8.18372
H         10.53476        6.77345        5.56098
H         11.75904        8.02726        5.78192
H         13.41480        6.33188        6.45781
H         12.77220        5.97224        4.85260
H         14.09977        4.24118        4.05450
H         11.64965        2.43864        3.78173
H         11.61353        4.20964        3.77741
H         11.55011        3.35418        1.48407
H         13.03068        4.27156        1.76981
H         12.77768        1.23216        1.81429
H         13.53795        2.18930        0.53897
H         15.22749        1.24635        2.12618
H         15.23310        3.01243        2.14166
H         15.28361        2.09577        4.45713
H         13.79780        1.20867        4.14466
H         10.51127        2.37060        5.96925
H          9.56732        0.14293        6.30808
H         11.01894       -1.73708        6.97380
H         13.42894       -1.36085        7.32862
H         15.51497       -0.56615        5.33173
H         16.78629        0.63671        5.23916
H         16.87100       -0.60849        6.45059
H         15.67968       -1.75847        8.05827
H         16.37206       -2.77602       10.18655
H         16.73625       -1.35268       12.16953
H         16.35051        1.05601       12.04277
H         16.42354        3.14219       11.90290
H         18.15766        2.39269       10.31630
H         17.96141        3.88393        9.38571
H         18.93833        3.65969       12.27255
H         19.93225        4.04541       10.86621
H         19.30792        6.09778       12.13983
H         18.64407        6.12590       10.50122
H         17.12043        5.30364       13.01384
H         16.92985        6.82923       12.14352
H         16.22908        5.60910       10.11644
H         15.15801        5.24059       11.47190
H         13.33493        3.88501       10.53314
H         14.11969        1.55375       12.34431
H         14.41060        3.26728       12.69797
H         12.39656        2.47711       13.85721
H         11.98283        3.70520       12.65767
H         11.72759        0.68890       12.27460
H         10.39014        1.81089       12.54569
H         10.66971        1.28411       10.11482
H         10.93753        2.99885       10.44812
H         12.69690        2.10230        8.93857
H         13.10056        0.86848       10.12819
