127
CSD_code = VEVTEX | q = 0 | S = 0 | Stoichiometry = C52H67N5PSiY | MND = 7
C          9.21480       12.46612       17.58908
C          9.66998       11.15471       18.00204
H         10.67446       10.91510       18.34729
C          8.52701       10.41407       18.29019
H          8.50917        9.41071       18.68207
C          7.39670       11.20557       18.05219
H          6.37704       10.88676       18.18132
C          7.80455       12.46413       17.64833
H          7.17039       13.29711       17.39310
C         10.94525       14.43782       18.97700
C         10.47945       13.88823       20.16565
H          9.71948       13.11992       20.13045
C         10.98415       14.33071       21.37515
H         10.62003       13.90395       22.29810
C         11.95254       15.32118       21.40368
H         12.34470       15.66634       22.34890
C         12.42064       15.86883       20.21973
H         13.17729       16.63977       20.24047
C         11.92082       15.42928       19.00707
H         12.29153       15.84772       18.08203
C          9.21760       15.22118       16.82502
C          8.96617       16.36883       17.56537
H          9.42147       16.49843       18.53737
C          8.12503       17.34253       17.05481
H          7.92952       18.23566       17.63039
C          7.53349       17.17584       15.81294
H          6.88108       17.94228       15.42111
C          7.77255       16.02568       15.07700
H          7.30949       15.88261       14.11181
C          8.60986       15.05130       15.58581
H          8.79659       14.14131       15.02898
C         12.74186       13.93624       16.30021
C         13.75836       13.39913       17.11261
C         15.06296       13.83698       16.93900
H         15.85285       13.41056       17.53811
C         15.36992       14.81525       16.01289
H         16.39129       15.14306       15.88787
C         14.35964       15.38755       15.26505
H         14.60007       16.17821       14.57093
C         13.04411       14.96448       15.39036
C         11.95045       15.66486       14.61574
H         11.04635       15.04810       14.66485
C         11.65112       17.01402       15.27842
H         11.36707       16.88355       16.32035
H         10.82876       17.51010       14.76691
H         12.52739       17.65849       15.23885
C         12.28457       15.89647       13.14179
H         13.10261       16.60390       13.02849
H         11.41281       16.31076       12.63960
H         12.55927       14.96962       12.64684
C         13.44126       12.36868       18.17255
H         12.36482       12.42784       18.38092
C         14.17186       12.64388       19.48839
H         15.23167       12.41499       19.40795
H         13.75411       12.02220       20.27811
H         14.06134       13.68577       19.77980
C         13.75559       10.95249       17.68284
H         13.17661       10.71721       16.78585
H         13.51470       10.22527       18.45755
H         14.81446       10.86332       17.44619
C         12.20648        9.25475       14.60847
C         13.53804       10.91840       13.43869
H         13.70637       10.16715       12.65331
C         13.20050       12.24297       12.75872
H         12.34073       12.12635       12.10155
H         14.04640       12.58877       12.16762
H         12.98012       12.98596       13.52491
C         14.83215       11.08791       14.24862
H         14.72014       11.90862       14.95349
H         15.66273       11.31158       13.58246
H         15.06680       10.18283       14.80440
C         10.80998        7.78056       15.96458
H         11.18608        6.96863       15.32994
C         11.40018        7.61169       17.37213
H         12.48395        7.71244       17.34161
H         11.15124        6.63197       17.77377
H         10.99793        8.37559       18.03443
C          9.28639        7.66515       16.00571
H          8.86033        8.51758       16.53251
H          8.99216        6.74772       16.51090
H          8.88040        7.65226       14.99744
C         12.99197        8.13299       14.00985
H         13.02945        7.28649       14.69074
H         14.02028        8.44292       13.84601
C         11.39819        9.08053       11.42736
H         10.55742        8.76084       10.81862
H         12.10001        9.58496       10.76911
H         11.03133        9.81562       12.14217
C         10.87541        6.25541       12.61115
H         10.55457        5.83777       11.66128
H          9.99513        6.65570       13.10495
H         11.25061        5.43275       13.21340
C         13.61753        6.88213       11.27500
H         14.08610        6.03252       11.76211
H         14.39400        7.61582       11.07927
H         13.24340        6.54042       10.31581
C          8.40725       12.34617       13.36754
C          7.08596       12.52363       12.92210
H          6.28644       11.92475       13.33308
C          6.79371       13.45761       11.94895
H          5.76842       13.57551       11.62631
C          7.78725       14.23973       11.38406
H          7.54675       14.96626       10.62265
C          9.09894       14.07061       11.80574
H          9.88702       14.66654       11.36733
C          9.40600       13.14515       12.77727
H         10.43324       13.00946       13.11745
C          7.21525        9.62814       14.15499
C          7.88396        9.10715       13.04476
H          8.81828        9.55585       12.73983
C          7.35707        8.03255       12.35692
H          7.88274        7.64243       11.49694
C          6.16489        7.45289       12.76003
H          5.75681        6.61255       12.21904
C          5.49914        7.96309       13.86351
H          4.56763        7.51883       14.18371
C          6.01217        9.04124       14.55527
H          5.49087        9.43819       15.41513
N         11.44389       13.37399       16.36078
N         12.42600       10.53095       14.29393
N         11.18372        9.08359       15.43839
N          8.78829       11.46757       14.34941
N          7.76502       10.65482       14.90182
P         10.28704       13.84324       17.37768
Si        12.19694        7.60255       12.33175
Y         10.57159       11.27811       15.50757
H          7.09777       11.15953       15.48950
