126
CSD_code = VEVTAT | q = 0 | S = 0 | Stoichiometry = C47H71N5PSiY | MND = 10
C          5.28276        4.41335        2.45833
C          6.02128        3.62385        1.49178
H          7.02536        3.85116        1.14496
C          5.08485        2.84224        0.82322
H          5.28895        2.17089        0.00515
C          3.81231        3.10642        1.34667
H          2.89779        2.63739        1.02713
C          3.91598        4.08086        2.31918
H          3.10845        4.49840        2.89680
C          4.64012        6.54795        4.23380
C          4.05787        5.74331        5.20660
H          4.44200        4.73904        5.33851
C          3.00439        6.21957        5.96461
H          2.55662        5.59713        6.72475
C          2.51792        7.49842        5.74428
H          1.69483        7.87285        6.33531
C          3.07950        8.29333        4.75926
H          2.69062        9.28477        4.57750
C          4.13832        7.82240        4.00263
H          4.56770        8.44566        3.23146
C          6.45635        7.12600        2.13200
C          6.13479        7.04255        0.78324
H          5.63037        6.16096        0.41310
C          6.45147        8.08745       -0.06691
H          6.20108        8.02176       -1.11563
C          7.07958        9.21983        0.42536
H          7.31875       10.03730       -0.23878
C          7.40340        9.30501        1.77043
H          7.89461       10.18731        2.15525
C          7.09756        8.25945        2.62281
H          7.35985        8.31356        3.67092
C          8.37089        5.95182        4.58488
C          8.38110        6.43889        5.90450
C          9.53474        7.02482        6.40354
H          9.54596        7.39885        7.41587
C         10.67272        7.13738        5.62886
H         11.57037        7.57562        6.03978
C         10.64353        6.71038        4.31621
H         11.52361        6.82948        3.70259
C          9.50307        6.13950        3.77057
C          9.49854        5.75138        2.31029
H          8.46016        5.55805        2.01312
C         10.03965        6.87399        1.42040
H          9.58947        7.82821        1.68084
H          9.81107        6.66201        0.37752
H         11.11903        6.96338        1.51621
C         10.30875        4.47626        2.07836
H         11.32508        4.60496        2.44267
H         10.35340        4.25513        1.01278
H          9.85063        3.63293        2.59565
C          7.13010        6.40744        6.75078
H          6.44323        5.67941        6.30545
C          6.47380        7.79212        6.71569
H          7.13052        8.53074        7.17208
H          5.53056        7.78086        7.25851
H          6.27007        8.10200        5.69323
C          7.37545        6.00819        8.20647
H          7.96931        5.10237        8.26941
H          6.42206        5.83373        8.70185
H          7.88996        6.79818        8.74888
C          9.35590        1.25535        3.81986
C          9.23554        1.71888        6.20717
H         10.31872        1.54380        6.27405
C          8.90529        2.98296        6.99830
H          9.49034        3.82308        6.62806
H          9.12412        2.84031        8.05558
H          7.84613        3.21229        6.86622
C          8.49768        0.50858        6.79895
H          7.42546        0.65035        6.67322
H          8.72715        0.39511        7.85681
H          8.78135       -0.40625        6.28228
C          9.21190        0.79953        1.45120
H         10.31004        0.86887        1.42037
C          8.81294       -0.68002        1.32476
H          9.12034       -1.25396        2.19558
H          9.27912       -1.11472        0.44256
H          7.73440       -0.76663        1.22610
C          8.66521        1.55349        0.23917
H          7.57941        1.50909        0.23513
H          9.04015        1.10299       -0.67782
H          8.97361        2.59478        0.26409
C         10.61662        0.45882        3.99060
H         10.71823       -0.26178        3.18395
H         10.54680       -0.11894        4.90993
C         12.88674        1.77042        2.27400
H         12.20198        2.34770        1.66132
H         13.05555        0.81961        1.77577
H         13.83594        2.29810        2.29034
C         12.04062        3.20574        4.92083
H         12.75982        3.92373        4.53714
H         12.21232        3.12345        5.99027
H         11.04910        3.62457        4.77938
C         13.50308        0.46763        5.00950
H         14.46537        0.96801        5.04341
H         13.65697       -0.50098        4.54348
H         13.19272        0.29042        6.03522
C          4.96515        1.33663        5.33642
C          5.07871       -0.34356        3.67079
H          4.14371       -0.69096        4.14397
C          6.20748       -1.31016        4.05127
H          7.15571       -0.90159        3.70624
H          6.04839       -2.28766        3.60104
H          6.25540       -1.42564        5.13263
C          4.87767       -0.30214        2.15950
H          4.04017        0.34554        1.91305
H          4.68375       -1.29946        1.77014
H          5.77322        0.10420        1.69228
C          4.80459        2.83231        7.16782
H          5.11515        3.86941        7.35211
C          5.36402        1.97305        8.30982
H          5.13536        0.92201        8.14491
H          4.91703        2.28033        9.25316
H          6.44162        2.08584        8.38341
C          3.26863        2.77657        7.19683
H          2.85358        3.18462        6.27797
H          2.89302        3.34858        8.04298
H          2.91709        1.75286        7.30298
N          7.27713        5.20176        4.09435
N          8.81371        1.92964        4.83477
N          8.70729        1.40516        2.67646
N          5.40944        0.98677        4.15017
N          5.36281        2.46714        5.86678
P          6.01178        5.77939        3.29039
Si        12.22553        1.51891        4.04897
Y          6.89894        2.71090        3.84660
H          4.26304        0.67240        5.85782
