68
CSD_code = VEZVEB | q = 0 | S = 0 | Stoichiometry = C28H38SiZr | MND = 12
Zr         3.84088        7.40774        4.06541
C          5.61690        7.50216        5.32876
C          6.61532        6.56887        5.62355
H          6.60751        5.59185        5.13989
C          7.64097        6.83337        6.52332
H          8.39859        6.08610        6.72090
C          7.68933        8.05366        7.17133
H          8.47902        8.26438        7.87911
C          6.71908        9.00631        6.90688
H          6.75936        9.96320        7.41305
C          5.70113        8.74367        5.99821
C          4.67779        9.81354        5.66373
H          5.08144       10.41307        4.83621
H          4.57619       10.49638        6.52239
C          3.31874        9.20605        5.25196
H          2.71089        9.99178        4.76407
H          2.79620        8.95058        6.18936
Si         2.78146        5.43006        1.65938
C          3.83898        7.01200        1.64043
C          3.32232        8.33587        1.82757
C          4.37729        9.18962        2.22893
C          5.55045        8.40224        2.35868
C          5.22186        7.07045        2.01173
C          2.48191        5.41975        3.53339
C          1.59648        6.30180        4.22868
C          1.98801        6.35887        5.58326
C          3.14961        5.55624        5.74552
C          3.46087        4.98635        4.48980
C          1.97202        8.87443        1.43985
H          1.50302        9.41279        2.26928
H          1.30605        8.08614        1.10817
H          2.08053        9.58429        0.61547
C          4.29219       10.69069        2.22493
H          5.21269       11.14099        2.58925
H          3.46198       11.05690        2.83017
H          4.13378       11.04562        1.20326
C          6.94374        8.88949        2.64157
H          7.51382        8.97301        1.71271
H          7.47292        8.20106        3.30185
H          6.93273        9.86785        3.11763
C          6.27586        6.01426        1.81864
H          5.84876        5.09025        1.44297
H          6.82435        5.81711        2.74407
H          7.00747        6.36125        1.08443
C          0.30937        6.89849        3.72647
H         -0.52827        6.51492        4.31350
H          0.13180        6.63376        2.68970
H          0.30384        7.98834        3.82461
C          1.17651        6.94378        6.70535
H          0.45516        6.20496        7.06543
H          0.61782        7.82071        6.37961
H          1.80990        7.22199        7.54649
C          3.80847        5.30531        7.07422
H          4.09428        6.24812        7.54771
H          4.70724        4.70203        6.96928
H          3.12382        4.78239        7.74545
C          4.47904        3.90208        4.25547
H          5.28623        4.21773        3.59273
H          3.99474        3.03281        3.80912
H          4.91842        3.58210        5.19885
C          1.22010        5.43132        0.54133
H          1.52811        5.38652       -0.49834
H          0.55966        6.28333        0.64145
H          0.63200        4.54187        0.74487
C          3.62235        3.85487        0.95565
H          4.45824        3.47846        1.52940
H          3.97069        4.04524       -0.05478
H          2.88818        3.05768        0.89739
