66
CSD_code = VIKXIX | q = 0 | S = 0 | Stoichiometry = C26H36N2SiZr | MND = 14
Zr        -0.45815        2.97679        9.07813
Si        -0.82991        3.27765        5.72729
N         -1.36639        3.86031       10.72341
N          0.81109        1.88203       10.30413
C          0.69259        2.69459       11.39749
C         -0.33888        3.63159       11.59613
C          0.21254        4.02301       12.90409
C          1.30465        3.03185       12.69351
C          2.32897        2.70006       13.48070
H          2.44357        3.19019       14.43274
H          3.07098        1.95880       13.24247
C         -0.02440        4.83622       13.93439
H         -0.85095        5.52152       13.99775
H          0.64302        4.82589       14.77952
C         -2.41061        4.81054       11.10815
C         -3.44139        4.91305        9.97376
H         -4.00312        3.98678        9.87802
H         -2.93817        5.13942        9.03103
H         -4.14345        5.71503       10.19506
C         -1.83458        6.22261       11.33413
H         -0.93980        6.18150       11.94671
H         -2.56970        6.85288       11.82996
H         -1.57943        6.67787       10.37807
C         -3.13179        4.30261       12.36878
H         -2.44520        4.24274       13.20642
H         -3.52496        3.30389       12.18316
H         -3.95607        4.96241       12.63032
C          1.89509        0.89933       10.27894
C          3.27678        1.57963       10.34947
H          3.29716        2.33277       11.13046
H          3.50412        2.06008        9.39874
H          4.04873        0.84115       10.55497
C          1.83681        0.11854        8.95728
H          1.82530        0.81226        8.11359
H          0.95496       -0.51696        8.92335
H          2.71693       -0.51666        8.87383
C          1.71387       -0.09879       11.43573
H          1.77800        0.40687       12.39324
H          2.47271       -0.87690       11.39227
H          0.73028       -0.56124       11.36392
C          0.22792        4.16987        7.01293
C          1.42111        3.64910        7.58240
H          2.09463        2.95864        7.08519
C          1.70652        4.37016        8.76105
H          2.61295        4.31102        9.34937
C          0.67518        5.30694        8.95952
H          0.67197        6.07407        9.72291
C         -0.25087        5.16762        7.90423
H         -1.07720        5.83940        7.69570
C         -1.62860        2.13035        6.99294
C         -0.97395        1.01740        7.57686
H         -0.24872        0.40136        7.06182
C         -1.60831        0.70914        8.79784
H         -1.43995       -0.16863        9.41043
C         -2.64351        1.64935        8.99702
H         -3.38570        1.59865        9.78484
C         -2.64197        2.53282        7.89805
H         -3.40306        3.26706        7.66920
C         -2.07989        4.43704        4.87173
H         -2.73970        3.87516        4.21990
H         -1.56616        5.17460        4.26477
H         -2.69779        4.96981        5.58682
C          0.21696        2.35055        4.42991
H         -0.41708        1.76521        3.77316
H          0.93023        1.67414        4.88895
H          0.77309        3.04955        3.81474
