75
CSD_code = VILNEL | q = 0 | S = 0 | Stoichiometry = C22H47N2PSi2Zr | MND = 8
C          1.01630        0.78061        1.97670
C          2.07165        0.67807        1.00889
C          2.48375        1.97585        0.66480
C          1.73802        2.90127        1.45259
C          0.86754        2.17608        2.28468
C          2.60704       -0.60563        0.43603
H          1.87101       -1.07844       -0.21656
H          2.85486       -1.30660        1.23677
H          3.50405       -0.42419       -0.15586
C          3.42804        2.39153       -0.43029
H          3.84688        1.52826       -0.94307
H          4.25310        2.99095       -0.03677
H          2.90207        2.99713       -1.17138
C          1.75907        4.39184        1.25482
H          1.16533        4.66554        0.37839
H          2.77493        4.75348        1.08852
H          1.33915        4.91293        2.11417
C         -0.11698        2.80360        3.23270
H          0.33374        3.65865        3.74126
H         -0.44178        2.08690        3.98243
H         -0.99963        3.16145        2.69502
C          2.26031       -0.36680        4.15177
C         -1.90584       -0.01651        3.17023
H         -2.43667       -0.96133        3.00274
H         -1.64712        0.42554        2.21035
H         -2.58476        0.66186        3.69778
C         -0.93142       -0.79538        5.23813
H         -1.57047       -0.15011        5.84941
H          0.02893       -0.91518        5.74127
H         -1.41482       -1.77904        5.16144
C         -0.32467       -2.13470        1.28904
H          0.10154       -2.75483        0.49246
H         -0.57565       -1.15899        0.87695
H         -1.24156       -2.62566        1.63982
C          1.11550       -3.19377        2.92597
H          0.30179       -3.78473        3.36687
H          1.83529       -2.94476        3.70715
H          1.61299       -3.81211        2.17073
C          3.57280        3.33007        4.28312
H          4.66529        3.37900        4.40033
H          3.30129        4.14856        3.59895
C          1.51622        2.16198        6.33269
H          0.52146        2.53456        6.55941
H          1.84242        1.58448        7.19376
H          1.43866        1.47103        5.47937
C          1.76256        5.23766        6.07566
H          2.41908        6.09530        5.96740
H          1.26205        5.32906        7.03448
H          1.00110        5.31267        5.30453
C          4.00863        3.63032        7.40349
H          4.56998        2.70311        7.45939
H          3.50867        3.76950        8.35680
H          4.72174        4.44021        7.28751
C          5.14099        1.08718        2.40505
H          5.12659        0.65121        1.39906
H          5.65639        2.05657        2.34130
C          5.21707       -1.81500        3.34748
H          4.12782       -1.73840        3.33172
H          5.49674       -2.51030        4.13218
H          5.54306       -2.24243        2.40443
C          5.46815        0.52840        5.39055
H          5.88905        1.50905        5.59696
H          5.83265       -0.14404        6.16190
H          4.37723        0.60022        5.48144
C          7.87901       -0.23670        3.61956
H          8.23752       -0.60450        2.66354
H          8.22741       -0.92254        4.38536
H          8.35407        0.72262        3.79887
N         -0.70100       -0.18518        3.95032
N          0.64911       -1.96391        2.33762
Si         2.75220        3.59085        5.95287
Si         5.96297       -0.07104        3.62613
P          0.85910       -0.50211        3.23590
Zr         3.06968        1.42985        3.20335
H          2.34266       -0.95149        5.07074
