110
CSD_code = VIPCAZ | q = 0 | S = 0 | Stoichiometry = C36H60ClHfN9Si3 | MND = 7
Hf        11.29673       11.98304       11.45682
Si        12.01593        8.85059       10.04936
Si         8.36834       13.21948        9.96410
Si        13.92902       14.17012       10.67200
Cl        11.56606       12.16383        9.07543
N         12.76868       11.32018       12.98958
N         13.95932        9.28943       12.73429
N         12.38009       10.12430       11.15944
N          9.85228       10.74497       12.60901
N          7.53647       10.80182       12.12069
N          9.18591       12.05292       10.94286
N         10.79514       13.56789       12.93628
N         12.00176       15.60460       12.99328
N         12.41918       13.84239       11.44698
C         13.63309       11.95277       13.86729
C         13.09366       12.64322       14.95874
H         12.02562       12.60370       15.11542
C         13.90468       13.36254       15.81257
H         13.46809       13.88752       16.65113
C         15.27438       13.41101       15.60655
H         15.90742       13.97411       16.27597
C         15.82154       12.73441       14.52897
H         16.88757       12.77479       14.35395
C         15.01813       12.01411       13.66744
H         15.45143       11.51333       12.81483
C         13.06944       10.22660       12.28541
C         14.24361        9.10509       14.13573
H         13.48144        9.58852       14.73833
H         15.22446        9.50834       14.41382
H         14.23232        8.03246       14.34968
C         14.82965        8.55103       11.85634
H         14.65378        8.85089       10.82991
H         14.66530        7.47555       11.95294
H         15.87230        8.76636       12.11831
C         13.17552        8.90084        8.52278
H         13.18384        9.90400        8.10615
H         12.80266        8.22899        7.75638
H         14.20191        8.61203        8.72935
C         12.04322        7.10687       10.84779
H         11.99817        7.16207       11.93050
H         12.93678        6.55754       10.57297
H         11.19397        6.51971       10.51647
C         10.25541        9.18554        9.38143
H          9.78941       10.01084        9.91510
H          9.61002        8.31564        9.45805
H         10.30030        9.47088        8.33586
C          9.89402        9.51663       13.24715
C         10.65194        9.39542       14.41754
H         11.12360       10.28067       14.81843
C         10.79900        8.17406       15.04269
H         11.38777        8.10220       15.94688
C         10.19212        7.04128       14.52364
H         10.30802        6.08649       15.01443
C          9.44042        7.14627       13.36505
H          8.97149        6.26657       12.94683
C          9.28990        8.36327       12.73044
H          8.72486        8.42845       11.81288
C          8.82691       11.18313       11.87432
C          7.09792       10.36196       13.42186
H          7.82993       10.63548       14.17489
H          6.93942        9.27779       13.45818
H          6.15300       10.86225       13.65286
C          6.55808       10.62409       11.07933
H          7.00781       10.83267       10.11565
H          5.69947       11.28251       11.22862
H          6.20435        9.58646       11.09187
C          6.75895       13.89683       10.75818
H          6.71325       13.67699       11.81969
H          5.87654       13.47882       10.28669
H          6.69961       14.97374       10.64649
C          8.00416       12.52941        8.21225
H          8.91079       12.10109        7.79458
H          7.68985       13.33628        7.55804
H          7.22653       11.77184        8.18170
C          9.58068       14.67721        9.71332
H         10.46661       14.55449       10.33207
H          9.12852       15.63750        9.94284
H          9.91752       14.71013        8.68271
C          9.64136       13.99783       13.56986
C          9.06202       13.17196       14.54004
H          9.57137       12.25771       14.80772
C          7.86576       13.51289       15.13749
H          7.43586       12.86175       15.88622
C          7.21567       14.68635       14.78928
H          6.27985       14.95168       15.25809
C          7.77621       15.51183       13.82863
H          7.27123       16.42390       13.54258
C          8.97144       15.17812       13.22314
H          9.38529       15.81440       12.45541
C         11.73979       14.37638       12.45036
C         11.69741       15.92057       14.36674
H         11.51852       15.00939       14.92848
H         10.81913       16.57073       14.45554
H         12.55996       16.43583       14.79916
C         12.40884       16.73891       12.20515
H         12.47193       16.45504       11.16116
H         13.37718       17.12098       12.53581
H         11.66624       17.53812       12.31418
C         13.68380       15.18297        9.06210
H         13.39967       16.21877        9.22281
H         12.91938       14.71303        8.45000
H         14.60555       15.18980        8.48933
C         15.20328       15.03608       11.81468
H         15.31483       16.08476       11.56250
H         16.18149       14.57884       11.71565
H         14.91612       14.96651       12.85871
C         14.64724       12.48380       10.12579
H         14.62488       12.40064        9.04453
H         14.05074       11.66357       10.51878
H         15.67608       12.34759       10.44540
