65
CSD_code = VIPKUB | q = 0 | S = 0 | Stoichiometry = C16H44IrP3Si | MND = 6
Ir         2.67583        3.42913        0.62223
P          4.70683        4.26853       -0.60516
P          2.91322        5.12065        2.28369
P          3.76089        1.72436        1.82058
Si         0.42747        2.93127        1.38071
C         -1.24493        5.35086        1.11374
C         -0.67707        4.42538        1.88040
H         -0.89555        4.49348        2.94258
C         -2.12826        6.43314        1.67693
H         -2.25196        6.32658        2.75226
H         -3.11179        6.39680        1.20861
H         -1.70400        7.41728        1.47171
C         -1.09059        5.40806       -0.37392
H         -0.26381        4.78620       -0.69606
H         -0.92010        6.43404       -0.70041
H         -2.00325        5.05486       -0.85403
C          0.22546        1.90316        3.02268
H         -0.82979        1.74446        3.22237
H          0.64733        2.40867        3.88528
H          0.68971        0.92516        2.95388
C         -0.73636        1.91857        0.20736
H         -1.77073        2.03327        0.51483
H         -0.49881        0.86046        0.23542
H         -0.65508        2.24734       -0.82069
C          2.43360        1.98164       -0.94331
H          3.40444        1.53457       -1.18366
H          2.04380        2.39885       -1.87396
H          1.77134        1.15571       -0.68642
C          4.94512        3.56965       -2.29167
H          5.68976        4.14539       -2.84112
H          3.99363        3.60002       -2.81635
H          5.27099        2.53343       -2.22599
C          6.51043        4.39049       -0.16319
H          7.01713        5.07350       -0.84391
H          6.97236        3.40903       -0.24440
H          6.63924        4.74949        0.85535
C          4.45766        6.02225       -1.12022
H          5.20580        6.32128       -1.85454
H          4.51981        6.68182       -0.25742
H          3.46350        6.11068       -1.55281
C          4.59269        5.71595        2.78228
H          4.51935        6.48664        3.54980
H          5.10754        6.12475        1.91531
H          5.17509        4.88054        3.16986
C          2.13543        6.72948        1.85469
H          2.30963        7.47489        2.63074
H          1.06832        6.54500        1.74362
H          2.51949        7.08870        0.90375
C          2.19243        4.96439        3.97133
H          2.36284        5.87715        4.54243
H          2.63019        4.12261        4.50084
H          1.12483        4.79568        3.86543
C          3.87247        1.69623        3.66069
H          4.44579        0.83401        4.00183
H          2.87015        1.65047        4.07864
H          4.35936        2.60599        4.00926
C          3.24940       -0.02136        1.54803
H          3.80671       -0.69493        2.19940
H          3.43258       -0.28679        0.50943
H          2.18473       -0.12065        1.74225
C          5.55750        1.51048        1.47035
H          5.95268        0.62668        1.97223
H          6.10038        2.38989        1.81184
H          5.69712        1.40560        0.39558
H          1.96175        4.44028       -0.29833
