100
CSD_code = VIVQEW | q = 0 | S = 0 | Stoichiometry = C46H45ClO4Si3Ti | MND = 8
Ti         5.00937       10.07872        6.21607
Cl         4.04837       12.03056        6.10293
Si         5.12631        8.98018        3.21481
Si         2.08279        9.10051        3.49933
Si         2.27078        8.31276        6.44521
O          5.33894        9.88023        4.52022
O          3.53927        8.71410        2.89735
O          1.78291        8.30303        4.88216
O          3.70041        9.01500        6.61141
C          5.85100        7.25239        3.52318
C          6.77431        6.63192        2.68884
H          7.13452        7.15757        1.81611
C          7.23534        5.35525        2.96221
H          7.95326        4.88765        2.30356
C          6.77280        4.67354        4.07553
H          7.12582        3.67381        4.28414
C          5.85638        5.27843        4.92074
H          5.48656        4.75111        5.78914
C          5.40876        6.55917        4.64729
H          4.69802        7.03955        5.30955
C          5.86449        9.90508        1.74107
C          5.77471        9.40322        0.44733
H          5.26254        8.46636        0.28456
C          6.32073       10.08945       -0.62284
H          6.24114        9.68578       -1.62222
C          6.96940       11.29535       -0.41424
H          7.39692       11.83220       -1.24883
C          7.06357       11.81249        0.86710
H          7.56328       12.75639        1.03294
C          6.51597       11.12033        1.93237
H          6.57571       11.52370        2.93555
C          0.83099        8.44479        2.25843
C          1.09405        8.48611        0.89392
H          2.04886        8.86363        0.56013
C          0.16065        8.04612       -0.02697
H          0.38317        8.08207       -1.08414
C         -1.06218        7.56045        0.40535
H         -1.79400        7.21684       -0.31180
C         -1.34238        7.51708        1.76073
H         -2.29553        7.13899        2.10269
C         -0.40292        7.95904        2.67474
H         -0.61651        7.92387        3.73232
C          1.97712       10.96598        3.78151
C          2.80652       11.84492        3.08692
H          3.51881       11.44754        2.37649
C          2.73676       13.21030        3.29872
H          3.39530       13.87366        2.75618
C          1.83174       13.72478        4.21148
H          1.78315       14.78980        4.38519
C          0.99739       12.86815        4.90902
H          0.29551       13.26165        5.63010
C          1.06766       11.50441        4.69082
H          0.41490       10.83998        5.23916
C          1.04015        9.30716        7.48902
C         -0.29133        8.92722        7.62726
H         -0.63308        8.02597        7.13896
C         -1.17601        9.68689        8.37218
H         -2.20780        9.37916        8.46523
C         -0.73972       10.84349        8.99691
H         -1.43032       11.43959        9.57602
C          0.58403       11.23282        8.87584
H          0.92872       12.13592        9.35879
C          1.46445       10.46870        8.13110
H          2.50079       10.77723        8.02838
C          2.38717        6.48642        6.94616
C          2.36218        5.47233        5.99340
H          2.23714        5.73640        4.95397
C          2.49416        4.14452        6.36038
H          2.47556        3.37207        5.60488
C          2.65198        3.80524        7.69367
H          2.75783        2.76941        7.98267
C          2.66828        4.80027        8.65702
H          2.78373        4.54169        9.70003
C          2.53509        6.12547        8.28240
H          2.53794        6.89871        9.03870
C          6.39609        8.80540        7.56800
C          7.19703        9.46342        6.58979
C          7.06926       10.86538        6.80027
C          6.21714       11.07394        7.92479
C          5.79301        9.80185        8.38827
C          6.31113        7.33469        7.85608
H          6.76295        7.12314        8.82846
H          5.27106        7.00341        7.89135
H          6.83478        6.75187        7.10208
C          8.12853        8.82532        5.59849
H          9.16527        9.03318        5.87354
H          7.99180        7.74658        5.56848
H          7.95557        9.21211        4.59219
C          7.78460       11.95158        6.04628
H          8.57601       12.38592        6.66208
H          8.23645       11.55582        5.13780
H          7.09028       12.75089        5.77462
C          5.97592       12.39748        8.59159
H          6.78171       12.60666        9.29998
H          5.94313       13.20011        7.85720
H          5.03147       12.40026        9.13311
C          4.95844        9.50346        9.60133
H          5.57132        9.03372       10.37411
H          4.52692       10.41301       10.01461
H          4.14756        8.81702        9.34819
