69
CSD_code = VIYBUA | q = 0 | S = 0 | Stoichiometry = C28H32CrO3S4Si | MND = 9
Cr         1.05385        3.79728        7.27820
Si        -0.85310        7.03681        7.50479
S         -3.28002        0.81433       10.82862
S         -3.62133        3.48524        9.53740
S         -2.93463        1.55994        2.86541
S         -3.41898        3.94604        4.59441
C         -2.81214        1.83898        9.37658
C         -1.27328        2.05281        9.47822
C         -0.80507        2.91572        8.34234
C         -0.81299        4.31367        8.45134
C         -0.73898        5.15381        7.32648
C         -0.71632        4.54225        6.05842
C         -0.70396        3.15143        5.90109
C         -0.60836        2.35220        7.06323
C         -1.06625        2.52046        4.58769
C         -2.60511        2.29597        4.51676
C         -3.01607        1.40573        5.65480
C         -3.01870        0.02195        5.53350
C         -3.12644       -0.77101        6.66249
C         -3.12264       -0.20245        7.92403
C         -3.12008        1.17979        8.06244
C         -3.14982        1.97079        6.91876
C         -5.08280        0.71644       10.57263
C         -5.75364        2.07860       10.63298
C         -5.36143        2.95729        9.45652
C         -4.75122        1.42190        2.94219
C         -5.43161        2.77389        3.07728
C         -5.15272        3.41772        4.42552
C          0.09286        7.83240        6.05609
C         -2.71571        7.46491        7.45358
C         -0.05993        7.51897        9.16793
C          2.17127        4.32517        8.61489
O          2.94842        4.63281        9.41471
C          2.27307        4.67037        6.24553
O          3.11134        5.18308        5.63502
C          2.32731        2.50646        7.14490
O          3.19211        1.74082        7.07191
H         -0.79985        1.06798        9.45686
H         -1.06241        2.51906       10.44267
H         -0.98861        4.75461        9.42597
H         -0.81748        5.16234        5.17496
H         -0.59015        1.27139        6.95940
H         -0.58349        1.54797        4.46242
H         -0.78204        3.16013        3.74978
H         -2.90209       -0.43534        4.56242
H         -3.14465       -1.84542        6.56081
H         -3.08683       -0.83288        8.79981
H         -3.20718        3.04635        7.01712
H         -5.43580        0.07179       11.37652
H         -5.26585        0.22849        9.61300
H         -5.48572        2.57842       11.56652
H         -6.83783        1.93519       10.61869
H         -5.51519        2.44044        8.50651
H         -5.93013        3.88644        9.45565
H         -5.00943        0.76510        3.77552
H         -5.02591        0.93862        2.00548
H         -6.51113        2.63402        2.97106
H         -5.09118        3.43727        2.27908
H         -5.73140        4.33234        4.54929
H         -5.38037        2.73397        5.24648
H         -0.42243        7.69387        5.11051
H          0.20440        8.90105        6.20780
H          1.08805        7.40741        5.95852
H         -3.16644        7.14925        6.51663
H         -3.25523        6.97334        8.25849
H         -2.87412        8.53389        7.55336
H         -0.67348        7.21843       10.01180
H          0.91633        7.05574        9.28352
H          0.07506        8.59348        9.23547
