100
CSD_code = VOGFUU | q = 0 | S = 0 | Stoichiometry = C39H54ClNO2Si2Ti | MND = 5
Ti         3.97948       10.20349        4.92259
Cl         5.30783       10.34703        3.16598
Si         3.00756        7.13177        3.69224
Si         6.77539       10.19062        6.43229
N          3.34456       12.37055        4.40717
O          3.10928       10.61069        6.39730
O          0.93129       12.69282        3.07019
C          2.53518        8.89343        4.18926
H          2.23130        9.41915        3.27707
H          1.65947        8.87402        4.85251
C          5.39577        9.01509        5.90177
H          5.78475        8.27639        5.19391
H          4.97257        8.47376        6.75045
C          1.52527        6.27669        2.81101
H          0.65581        6.22179        3.45915
H          1.77315        5.26306        2.51287
H          1.23329        6.81918        1.91746
C          3.41334        6.02461        5.20779
H          4.36340        6.28788        5.66037
H          3.46940        4.98083        4.91461
H          2.64705        6.10577        5.97217
C          4.47280        7.09277        2.46406
H          4.23974        7.66406        1.57047
H          4.70942        6.07829        2.15672
H          5.36895        7.52969        2.89610
C          6.12405       12.00304        6.36103
H          5.95132       12.27774        5.31896
H          6.83695       12.71354        6.77240
H          5.19207       12.11711        6.91899
C          8.29401       10.09015        5.27139
H          8.80380        9.13710        5.37118
H          9.01603       10.87248        5.48487
H          7.98453       10.19452        4.23552
C          7.38281        9.89510        8.23092
H          6.59852       10.07947        8.95786
H          8.21495       10.54765        8.47308
H          7.72153        8.87324        8.36449
C          2.33195       11.44411        7.02931
C          2.09633       12.72668        6.46076
C          1.27212       13.65658        7.10961
H          1.11996       14.62501        6.65259
C          0.65930       13.34720        8.29789
C          0.90527       12.09015        8.85874
H          0.42104       11.88122        9.79834
C          1.72277       11.13812        8.28261
C          2.69171       13.12034        5.21939
H          2.53321       14.17323        4.95125
C         -0.22437       14.32708        9.00933
H         -0.59327       15.08623        8.32429
H          0.33190       14.82677        9.80284
H         -1.07322       13.82163        9.46447
C          3.87072       13.01064        3.26964
C          3.50822       12.61676        1.97530
C          4.11836       13.24389        0.89388
H          3.83847       12.94011       -0.10431
C          5.05128       14.24790        1.07279
H          5.51520       14.71350        0.21647
C          5.38173       14.65603        2.35317
H          6.10219       15.44526        2.50807
C          4.78625       14.04795        3.44111
H          5.05195       14.35113        4.44576
C          2.50200       11.57196        1.70667
C          1.20567       11.63190        2.24964
C          0.27258       10.66181        1.90092
H         -0.72791       10.69211        2.30240
C          0.61307        9.64241        1.02697
H         -0.12920        8.90235        0.76772
C          1.88686        9.57338        0.49432
H          2.15379        8.77467       -0.18038
C          2.81886       10.53908        0.83163
H          3.82209       10.49142        0.43614
C         -0.31571       12.73344        3.71758
H         -0.29542       13.62280        4.34571
H         -0.46655       11.85258        4.35119
H         -1.14033       12.81900        3.00230
C          1.98992        9.80477        8.97062
C          1.23487        9.67115       10.30171
H          1.53154       10.47472       10.97961
H          0.15816        9.73810       10.12844
C          1.56690        8.64124        8.05918
H          0.49694        8.72013        7.84545
H          2.11568        8.69666        7.11422
C          3.49368        9.68474        9.26688
H          4.05833        9.78055        8.33733
H          3.79490       10.49791        9.93385
C          1.54437        8.33104       10.96829
H          0.99355        8.27078       11.91466
C          1.86809        7.30295        8.73273
H          1.55792        6.49060        8.06551
C          3.79863        8.33814        9.92257
H          4.87629        8.26832       10.10864
C          1.10630        7.19317       10.05088
H          0.03043        7.25354        9.86945
H          1.31242        6.23019       10.52349
C          3.36728        7.19792        9.00217
H          3.91334        7.25008        8.05891
H          3.59544        6.23753        9.47037
C          3.04238        8.22836       11.24498
H          3.26789        7.27517       11.72842
H          3.35163        9.02825       11.92204
