73
CSD_code = VOHXEV | q = 0 | S = 0 | Stoichiometry = C16H44B8CrSi4 | MND = 10
Cr         0.41129       -0.38035        0.03844
C          0.77626       -0.38603        2.04629
C         -0.70298       -0.44506        1.83664
B         -1.19084        0.73139        0.97672
B          0.16634        1.61399        0.60467
B          1.43974        0.84013        1.30866
B         -0.04122        1.08324        2.25722
Si         1.87115       -1.45956        3.14983
Si        -1.87304       -1.77642        2.46808
C          3.31579       -0.39955        3.83120
C          1.10644       -2.25476        4.71550
C          2.60806       -2.79232        1.99366
C         -3.52947       -1.64058        1.52529
C         -2.27763       -1.61397        4.33720
C         -1.16504       -3.48688        1.98351
H         -2.31651        0.90883        0.72847
H          0.17991        2.62193        0.01517
H          2.56079        1.12960        1.45058
H         -0.19450        1.58748        3.30939
H          3.88013       -0.94470        4.58244
H          4.00761       -0.12015        3.04489
H          2.95933        0.51652        4.29207
H          1.85409       -2.86837        5.21090
H          0.78940       -1.49934        5.42808
H          0.25422       -2.88825        4.50630
H          3.34760       -3.39131        2.51569
H          1.85518       -3.46991        1.60768
H          3.09657       -2.33274        1.14085
H         -4.20907       -2.43469        1.82021
H         -4.02992       -0.69767        1.71694
H         -3.37643       -1.72203        0.45519
H         -2.33236       -2.58482        4.82029
H         -1.53745       -1.02495        4.86747
H         -3.23819       -1.12743        4.47779
H         -1.91324       -4.25942        2.13360
H         -0.88888       -3.50045        0.93358
H         -0.29196       -3.76937        2.55932
C         -0.52281        0.16315       -1.92224
C          0.87240        0.60527       -1.90305
B          1.85707       -0.52013       -1.49582
B          0.90237       -1.83739       -1.29416
B         -0.65299       -1.31430       -1.51324
B          0.59055       -0.88170       -2.71563
Si        -2.00657        1.09555       -2.63666
Si         1.64180        2.19979       -2.58358
H          3.01847       -0.38837       -1.54572
H          1.21221       -2.93614       -1.00988
H         -1.65926       -1.90937       -1.51162
H          0.63758       -1.00823       -3.88074
C         -3.57193       -0.00137       -2.51509
C         -1.71237        1.36419       -4.51489
C         -2.48347        2.73826       -1.77925
C          3.11297        2.70518       -1.47290
C          2.33774        1.75534       -4.31773
C          0.59972        3.79031       -2.79590
H         -4.43168        0.50900       -2.94008
H         -3.81201       -0.23462       -1.48364
H         -3.45467       -0.93930       -3.04665
H         -2.53597        1.91277       -4.96352
H         -1.63815        0.41108       -5.02950
H         -0.80130        1.91459       -4.71961
H         -2.78894        3.48078       -2.50986
H         -1.67929        3.16083       -1.19386
H         -3.32167        2.58317       -1.10885
H          3.61158        3.58248       -1.87388
H          3.85037        1.91545       -1.40008
H          2.78819        2.94138       -0.46702
H          2.88998        2.58616       -4.74748
H          1.55285        1.48913       -5.01830
H          3.01266        0.90842       -4.25433
H          1.18075        4.51950       -3.35391
H          0.36015        4.24092       -1.83971
H         -0.32747        3.63622       -3.33145
