38
CSD_code = VOKQUI | q = 0 | S = 0 | Stoichiometry = C11H20Cl3N2NbSi | MND = 10
Nb         4.55342       -0.09235        8.42804
N          5.99553        1.27458        8.34130
N          6.83453       -1.36922        8.39781
Si         5.32467        2.89689        8.36622
Cl         3.76269       -2.28370        8.60950
Cl         5.01642       -0.26750       10.80772
Cl         4.92473       -0.56851        6.06065
C          3.56891        2.17811        8.35513
C          2.99037        1.56616        9.49600
H          3.12075        1.89929       10.51707
C          2.09005        0.56065        9.07639
H          1.43477       -0.01274        9.71886
C          2.12063        0.51681        7.67206
H          1.49255       -0.09511        7.03777
C          3.03880        1.49720        7.22977
H          3.20626        1.77112        6.19616
C          7.40811        1.02486        8.43847
H          7.98833        1.79163        7.91083
H          7.70330        1.04679        9.50005
C          7.71513       -0.34391        7.82212
H          8.77091       -0.60761        7.97206
H          7.50210       -0.28028        6.75094
C          7.33387       -1.78930        9.70965
H          7.44001       -0.93656       10.37575
H          8.30497       -2.28757        9.60168
H          6.62296       -2.48284       10.15880
C          5.75108        3.80160        9.98586
H          6.77203        4.16789        9.96583
H          5.65266        3.13371       10.83713
H          5.09833        4.65273       10.14497
C          5.78517        3.86159        6.79185
H          5.67991        3.24173        5.90653
H          6.81246        4.20680        6.83759
H          5.15117        4.73287        6.67293
C          6.82503       -2.56242        7.54570
H          6.16106       -3.30763        7.98392
H          7.83503       -2.98008        7.46356
H          6.45669       -2.31515        6.55142
