60
CSD_code = VOLJUB | q = 1 | S = 0 | Stoichiometry = C27H31SiZr(1+) | MND = 14
Zr         0.16298       13.13472       15.28978
Si         2.87689       11.39899       15.37314
C          1.16048       11.35514       14.57788
C          0.68882       10.39131       13.78065
C         -0.71144       10.45916       13.20962
C          1.42933        9.15891       13.34361
C          2.87996       13.15476       16.24313
H          2.98357       13.05380       17.32250
H          3.73661       13.73357       15.90430
H          1.97430       13.76761       16.03794
C          3.11740       10.12312       16.78048
C          4.40522       11.39065       14.22510
C         -1.67148       13.85204       16.78309
C         -0.48673       13.89340       17.55254
C          0.05182       12.58538       17.67477
C         -0.82922       11.68844       16.99508
C         -0.86801       10.28056       16.88196
C         -1.92673        9.69669       16.23753
C         -2.96166       10.46714       15.66993
C         -2.95701       11.83693       15.73717
C         -1.89857       12.48619       16.41546
C         -2.53110       15.02593       16.39899
C         -1.75054       16.01203       15.49531
C         -0.84819       15.26668       14.54950
C         -1.24292       14.27251       13.62548
C         -0.09811       13.75673       12.95518
C          1.03814       14.48393       13.43202
C          2.39999       14.46671       13.06874
C          3.26080       15.33987       13.68588
C          2.81490       16.23347       14.67971
C          1.49948       16.27646       15.07098
C          0.57207       15.41098       14.44716
H         -1.28502       11.30228       13.62779
H         -0.66438       10.55604       12.12366
H         -1.24382        9.53284       13.42214
H          2.44616        9.15047       13.72000
H          0.91379        8.27128       13.70760
H          1.45350        9.09899       12.25675
H          4.07530       10.26427       17.27180
H          2.34327       10.19759       17.53939
H          3.09871        9.10896       16.39658
H          4.56987       10.41166       13.78881
H          4.30326       12.09812       13.40786
H          5.30309       11.65172       14.77726
H         -0.12018       14.76757       18.08478
H          0.83888       12.28965       18.35723
H         -0.10154        9.67635       17.34677
H         -1.99074        8.62151       16.17836
H         -3.78329        9.95933       15.18908
H         -3.78699       12.40628       15.33742
H         -2.87731       15.55417       17.29141
H         -3.41603       14.66410       15.87016
H         -1.14920       16.68281       16.11480
H         -2.46118       16.63114       14.94074
H         -2.27125       14.03369       13.36842
H         -0.10932       13.14040       12.06488
H          2.73733       13.81123       12.27732
H          4.29978       15.36582       13.39642
H          3.52632       16.91100       15.12576
H          1.17074       17.00329       15.80333
