63
CSD_code = VOLYAY | q = 0 | S = 0 | Stoichiometry = C12H44MoP4Si2 | MND = 8
Mo         4.82416        0.00012        2.09031
Si         4.53465        2.44617        2.76883
P          3.18846        0.75936        0.47301
P          3.07003       -0.35282        3.76706
C          2.35096       -0.52173       -0.53822
H          1.72905       -0.06240       -1.30895
H          1.73076       -1.13384        0.11656
H          3.09439       -1.16687       -1.00119
C          1.66771        1.69154        0.92880
H          1.05770        1.84796        0.03752
H          1.93628        2.65186        1.35997
H          1.09325        1.12278        1.65774
C          3.77840        1.84576       -0.87819
H          2.93978        2.22124       -1.46620
H          4.43943        1.26551       -1.52226
H          4.33100        2.67903       -0.44791
C          1.66094       -1.38439        3.19909
H          1.03509       -1.66051        4.04994
H          2.04247       -2.28387        2.72075
H          1.06336       -0.82673        2.47882
C          3.46299       -1.30179        5.29739
H          2.70175       -1.12353        6.05875
H          4.43819       -1.00965        5.68333
H          3.49686       -2.36142        5.05778
C          2.06809        0.96158        4.58121
H          1.21751        0.50530        5.09110
H          1.71463        1.68363        3.84893
H          2.68497        1.48675        5.30891
H          5.75304        3.28720        2.91549
H          3.87488        3.34786        1.79229
H          3.84942        2.91806        3.99193
H          5.68697        1.14710        1.40132
Si         5.11334       -2.44517        2.76951
P          6.46025       -0.75938        0.47289
P          6.57867        0.35253        3.76733
C          7.29748        0.52176       -0.53849
H          7.91939        0.06244       -1.30921
H          7.91764        1.13405        0.11618
H          6.55392        1.16674       -1.00149
C          7.98120       -1.69121        0.92873
H          8.59106       -1.84777        0.03738
H          7.71279       -2.65148        1.36011
H          8.55573       -1.12225        1.65746
C          5.87011       -1.84597       -0.87805
H          6.70868       -2.22134       -1.46621
H          5.20880       -1.26591       -1.52201
H          5.31779       -2.67929       -0.44752
C          7.98762        1.38430        3.19929
H          8.61345        1.66050        4.05013
H          7.60600        2.28378        2.72102
H          8.58529        0.82682        2.47894
C          6.18547        1.30151        5.29758
H          6.94691        1.12356        6.05880
H          5.21044        1.00892        5.68364
H          6.15111        2.36113        5.05798
C          7.58092       -0.96180        4.58108
H          8.43153       -0.50551        5.09091
H          7.93423       -1.68380        3.84866
H          6.96407       -1.48696        5.30879
H          3.89526       -3.28693        2.91487
H          5.77455       -3.34693        1.79394
H          5.79872       -2.91832        3.99197
H          3.96134       -1.14726        1.40206
