55
CSD_code = VONFUA | q = 0 | S = 0 | Stoichiometry = C19H32ClPRuSi | MND = 9
Ru        -5.29655       19.73302        4.32640
P         -3.97072       18.00171        3.51620
Si        -3.92595       21.71313        4.07848
Cl        -4.26599       22.78206        2.31293
C         -6.80435       20.66848        5.67003
H         -6.72135       21.54204        6.30332
C         -7.29916       20.64027        4.34640
H         -7.66101       21.49266        3.78407
C         -7.45072       19.26980        3.96782
H         -7.95499       18.91950        3.07609
C         -7.07790       18.46720        5.06672
H         -7.19897       17.39516        5.14286
C         -6.64775       19.32037        6.10261
H         -6.41703       19.01502        7.11552
C         -2.64353       18.29928        2.28182
C         -2.78217       19.38119        1.41567
H         -3.62910       20.04087        1.52633
C         -1.84450       19.63087        0.43032
H         -1.97270       20.48089       -0.22230
C         -0.74623       18.79957        0.28994
H         -0.00890       18.99239       -0.47501
C         -0.59758       17.71877        1.14178
H          0.25626       17.06407        1.04137
C         -1.53627       17.46668        2.12764
H         -1.38206       16.61732        2.77483
C         -3.08480       16.96910        4.79640
H         -2.64683       16.10241        4.29243
C         -1.97262       17.78860        5.44102
H         -1.44000       17.18778        6.17666
H         -2.39270       18.65954        5.94083
H         -1.26273       18.14193        4.69622
C         -4.07355       16.47422        5.84441
H         -3.55982       15.87887        6.59808
H         -4.85175       15.85867        5.39540
H         -4.54002       17.32268        6.34195
C         -4.99229       16.72984        2.57753
H         -5.87000       16.54212        3.20948
C         -5.46326       17.34309        1.26148
H         -6.22496       16.71405        0.80285
H         -4.62983       17.43671        0.56792
H         -5.88282       18.33480        1.42128
C         -4.28650       15.40565        2.30282
H         -4.92636       14.78568        1.67558
H         -4.08231       14.85148        3.21555
H         -3.35398       15.57181        1.76769
C         -1.99405       21.57116        4.09793
H         -1.53836       22.50474        3.78263
H         -1.63958       20.78597        3.43680
H         -1.63959       21.34531        5.09807
C         -4.28855       23.07585        5.40089
H         -3.59797       23.90415        5.27570
H         -4.16822       22.69156        6.40876
H         -5.29409       23.47567        5.30772
H         -4.23796       19.67327        5.43150
H         -5.30823       20.00537        2.83109
