87
CSD_code = VUFGAG | q = 0 | S = 0 | Stoichiometry = C30H50FeP4SSi | MND = 6
Fe         9.85085        3.40345        9.05865
S          9.76405        5.67487        8.50381
P          8.54110        3.99564       10.68367
P         11.71180        3.64909        7.89575
P          8.42037        2.96998        7.49318
P         10.16774        1.34583        9.65480
Si        10.29822        8.92048        8.69439
C          8.82976        5.75727       11.01818
C          9.39439        6.50230        9.97883
C          9.60454        7.88186       10.12202
C          9.25560        8.45771       11.33557
H          9.41821        9.51615       11.47428
C          8.70400        7.72254       12.37441
H          8.44428        8.20714       13.30485
C          8.47872        6.36843       12.21419
H          8.03115        5.78732       13.00955
C          9.11502        8.86289        7.19742
H          8.94611        7.83835        6.88533
H          9.52349        9.40836        6.35201
H          8.15006        9.29893        7.43920
C         12.04992        8.35626        8.18708
H         12.71944        8.32093        9.04213
H         12.48017        9.03681        7.45796
H         12.02056        7.36763        7.74364
C         10.42986       10.73731        9.26405
H          9.46372       11.14292        9.54568
H         10.81849       11.35339        8.46000
H         11.09913       10.84827       10.11099
C          8.82541        3.40583       12.39477
C         10.14559        3.45694       12.83508
H         10.90605        3.79273       12.14287
C         10.47831        3.10121       14.12729
H         11.50822        3.14720       14.45247
C          9.48901        2.69459       15.00844
H          9.74345        2.41266       16.01977
C          8.16999        2.67024       14.59082
H          7.39015        2.37741       15.27973
C          7.83466        3.03025       13.29604
H          6.79526        3.02872       13.00188
C          6.71410        3.97976       10.56635
C          5.99627        2.79739       10.74095
H          6.51925        1.89182       11.01737
C          4.62348        2.77582       10.57452
H          4.07723        1.85531       10.72863
C          3.95028        3.92871       10.20385
H          2.87834        3.91043       10.07148
C          4.65802        5.10094        9.99844
H          4.13917        6.00055        9.69939
C          6.03012        5.12760       10.17540
H          6.57722        6.04730       10.01571
C         12.93323        4.59560        8.87607
H         12.46473        5.51392        9.22408
H         13.81936        4.82331        8.28182
H         13.21162        3.99809        9.74383
C         12.84079        2.29312        7.35107
H         13.11029        1.65369        8.18894
H         13.74586        2.73761        6.93508
H         12.35716        1.69438        6.58033
C         11.76062        4.57830        6.30434
H         11.61456        3.88408        5.47835
H         12.73782        5.05111        6.20236
H         10.98736        5.34249        6.28086
C          7.33483        4.32044        6.90546
H          6.73952        4.68579        7.74224
H          6.68052        3.95483        6.11288
H          7.95089        5.13859        6.53519
C          7.12268        1.69641        7.74314
H          7.57377        0.72486        7.93321
H          6.49346        1.63548        6.85429
H          6.51064        1.98032        8.59753
C          9.06561        2.41405        5.86629
H          9.48550        3.28070        5.35921
H          8.26294        1.99361        5.25950
H          9.84965        1.67245        6.00979
C         10.43521       -0.00754        8.43209
H          9.60833       -0.03268        7.72495
H         10.49516       -0.96312        8.95393
H         11.35722        0.16049        7.88317
C         11.63092        1.07721       10.72868
H         12.48178        1.62290       10.32654
H         11.86752        0.01553       10.80862
H         11.39876        1.47901       11.71407
C          8.93801        0.47340       10.70578
H          8.73480        1.08051       11.58699
H          9.33972       -0.49209       11.01706
H          8.01435        0.32009       10.15107
H         10.76179        3.78550       10.12072
