101
CSD_code = VUWSEM | q = 0 | S = 0 | Stoichiometry = C43H54MoO2Si | MND = 8
C         -1.54435       15.96727       18.14563
C         -2.29215       17.06012       18.60608
C         -3.51158       16.84492       19.22528
H         -4.09022       17.68453       19.58185
C         -3.98313       15.54914       19.38307
H         -4.93503       15.38272       19.86572
C         -3.24756       14.46470       18.92907
H         -3.62407       13.46006       19.05753
C         -2.02294       14.66295       18.30759
C         -1.66798       18.38274       18.36855
C         -0.77104       18.90384       19.30502
C         -0.09720       20.07741       19.00535
H          0.59568       20.48934       19.72320
C         -0.27775       20.73379       17.79843
C         -1.17586       20.20216       16.88536
H         -1.32876       20.70256       15.94290
C         -1.87794       19.03824       17.15111
C         -0.54526       18.21837       20.63311
H         -1.08876       17.26773       20.63456
C          0.93638       17.91599       20.86076
H          1.50980       18.83200       20.96899
H          1.34603       17.35876       20.01912
H          1.06188       17.32643       21.76652
C         -1.10306       19.07873       21.77017
H         -0.97391       18.57333       22.72489
H         -2.16390       19.26608       21.61829
H         -0.59004       20.03599       21.81441
C          0.50696       21.98312       17.48765
H          1.03238       22.28992       18.39886
C          1.55337       21.67833       16.41398
H          1.07736       21.33632       15.49873
H          2.22455       20.89502       16.75827
H          2.13882       22.56817       16.19268
C         -0.40176       23.13450       17.05364
H          0.17882       24.04842       16.94845
H         -1.18247       23.30344       17.79268
H         -0.87184       22.92140       16.09724
C         -2.87461       18.50855       16.14530
H         -3.24858       17.54140       16.49727
C         -2.23534       18.29540       14.77291
H         -1.35758       17.65589       14.85549
H         -1.92471       19.23913       14.33418
H         -2.94902       17.82592       14.09905
C         -4.06796       19.46289       16.04350
H         -4.80932       19.06865       15.35172
H         -3.74947       20.43955       15.68814
H         -4.53604       19.58973       17.01736
C         -1.18581       13.54908       17.80357
C         -1.32357       13.11599       16.48309
C         -0.52780       12.07249       16.03285
H         -0.63989       11.72039       15.01719
C          0.40669       11.45993       16.85298
C          0.54363       11.92278       18.15313
H          1.26870       11.45912       18.80450
C         -0.23473       12.96048       18.64140
C         -2.32829       13.75582       15.55274
H         -2.79219       14.60220       16.06826
C         -1.65210       14.29100       14.28884
H         -1.25647       13.47962       13.68286
H         -0.83361       14.96291       14.54819
H         -2.37121       14.84189       13.68717
C         -3.43392       12.75868       15.19685
H         -4.17605       13.23179       14.55763
H         -3.92927       12.40557       16.09876
H         -3.02622       11.89827       14.67169
C          1.23437       10.30586       16.34092
H          0.98287       10.14755       15.28582
C          2.73268       10.60163       16.43011
H          3.04217       10.73523       17.46390
H          2.97895       11.50546       15.87695
H          3.30223        9.77539       16.00990
C          0.88982        9.02651       17.10743
H          1.43817        8.18125       16.69724
H         -0.17534        8.81705       17.03540
H          1.14848        9.12579       18.15883
C         -0.05393       13.43371       20.06578
H         -0.71681       14.28718       20.23734
C          1.38189       13.90011       20.31415
H          1.66557       14.66281       19.58914
H          2.08144       13.07109       20.23836
H          1.46873       14.32480       21.31159
C         -0.44608       12.32983       21.05098
H          0.19645       11.46006       20.93767
H         -1.47461       12.01920       20.88058
H         -0.35885       12.68986       22.07376
C          1.52776       18.03341       15.18362
C          2.66407       17.99857       17.37286
C          2.36960       14.37981       15.33307
H          1.60845       13.65230       15.07208
C          3.08357       14.40992       16.55931
H          2.95612       13.70556       17.37380
C          4.12847       15.34619       16.42796
H          4.93437       15.49755       17.13881
C          4.06078       15.90908       15.13229
H          4.82574       16.51957       14.67097
C          2.97644       15.29842       14.45469
H          2.75680       15.40294       13.39677
O          1.24223       18.93049       14.51273
O          3.05243       18.88462       18.00702
Si         0.09223       16.34756       17.31126
Mo         2.13857       16.53456       16.23320
