36
CSD_code = WAKCOA | q = 0 | S = 0 | Stoichiometry = C13H15NO5SiW | MND = 6
W         -3.45143        2.60122        0.29523
Si         1.89925        2.60085        1.12231
O         -5.62257        2.60060        2.56224
O         -1.77852        0.46927        1.88123
O         -5.11999        0.31765       -1.06969
N         -1.90744        2.60087       -2.54877
C         -4.82669        2.60080        1.74114
C         -2.39312        1.21383        1.27212
C         -4.49257        1.15913       -0.61330
C         -1.88896        2.60105       -1.23938
C         -0.62860        2.60068       -0.61722
C          0.43131        2.60035       -0.01933
C         -3.13019        2.60161       -3.31290
C         -0.72253        2.60008       -3.38418
C          1.79645        1.02436        2.18395
C          3.47431        2.60129        0.04656
H         -3.99201        2.60242       -2.64788
H         -3.17104        1.71570       -3.95116
H          0.17067        2.59879       -2.76266
H         -0.71824        1.71474       -4.02344
H          2.60281        0.98316        2.91078
H          0.85791        0.98162        2.72795
H          1.85908        0.13022        1.57074
H          4.36828        2.60184        0.66328
H          3.51971        1.72452       -0.59301
C         -2.39312        3.98857        1.27219
C         -4.49270        4.04351       -0.61296
C          1.79537        4.17739        2.18380
H         -3.16964        3.48735       -3.95150
H         -0.71630        3.48611       -4.02248
H          3.51891        3.47781       -0.59340
O         -1.77859        4.73330        1.88114
O         -5.12058        4.88496       -1.06875
H          2.60194        4.21948        2.91034
H          0.85698        4.21934        2.72811
H          1.85693        5.07149        1.57041
