69
CSD_code = WAMVEN | q = 0 | S = 0 | Stoichiometry = C29H34Cl2N2SiTi | MND = 9
Ti         6.48401        2.08527       10.78761
N          4.96008        1.43614        9.94036
N          5.36218        2.44080        9.06048
Cl         7.49523        0.10786       10.78999
Cl         8.13462        3.08974        9.65917
Si         4.26778       -0.04247        9.38353
C          5.79587        2.06305        7.75376
C          5.18226        2.59456        6.61927
C          5.59383        2.21076        5.35610
C          6.61248        1.28694        5.20050
C          7.21220        0.74287        6.32332
C          6.81023        1.12101        7.59190
C          4.61227        3.64778        9.11072
C          3.28518        3.66306        9.53067
C          2.57220        4.84951        9.51608
C          3.17055        6.02199        9.08462
C          4.49670        6.00953        8.67762
C          5.22091        4.83245        8.68989
C          2.83048        0.29903        8.17358
C          3.64768       -0.94081       10.92834
C          4.46433       -1.87516       11.55643
C          4.02689       -2.58063       12.66364
C          2.75601       -2.36153       13.16837
C          1.92650       -1.43878       12.55425
C          2.37045       -0.74271       11.44338
C          5.81104        3.83245       12.19800
C          5.10658        2.64787       12.56898
C          6.06484        1.69109       13.00646
C          7.35756        2.28531       12.90979
C          7.19671        3.60757       12.43022
C          5.23341        5.19816       11.96807
C          3.62225        2.49591       12.73054
C          5.76052        0.38109       13.66894
C          8.64998        1.68194       13.37606
C          8.26116        4.66046       12.37171
H          5.18942       -0.96226        8.67209
H          4.37787        3.30860        6.71921
H          5.10757        2.63525        4.49037
H          6.93378        0.99287        4.21317
H          8.00723        0.02070        6.21710
H          7.29944        0.68733        8.45445
H          2.82502        2.74025        9.85006
H          1.53912        4.85494        9.83208
H          2.60729        6.94234        9.06573
H          4.96760        6.92290        8.34649
H          6.25422        4.80969        8.36893
H          3.17816        0.81608        7.28443
H          2.03390        0.89330        8.60961
H          2.39457       -0.64182        7.85633
H          5.45806       -2.04504       11.16991
H          4.67700       -3.30278       13.13632
H          2.41148       -2.90948       14.03353
H          0.93123       -1.26569       12.93922
H          1.70484       -0.03918       10.96260
H          3.26888        1.57489       12.26620
H          3.37468        2.45443       13.79397
H          3.09254        3.33925       12.29325
H          6.39164       -0.41696       13.27781
H          5.94261        0.46205       14.74358
H          4.72157        0.10106       13.51454
H          8.94762        2.12510       14.32969
H          8.54845        0.60677       13.51129
H          9.44754        1.86248       12.65250
H          9.24951        4.21272       12.29056
H          8.22951        5.26288       13.28364
H          8.11546        5.32359       11.51995
H          5.78207        5.73439       11.19406
H          4.18587        5.15577       11.68043
H          5.30799        5.77857       12.89161
