104
CSD_code = WAVKIP | q = 0 | S = 0 | Stoichiometry = C34H64P4RuSi | MND = 6
Ru         0.77813       17.04061        3.78831
P          1.88803       19.04277        3.28702
P         -1.06141       18.41550        3.97848
P          2.54207       15.59021        3.99991
P          0.40512       15.95039        1.78244
Si        -0.58541       15.31673        4.80314
C          3.58114       18.64883        1.09546
C          2.76699       19.73910        1.77730
C          3.65555       20.91648        2.22262
C          3.70251       21.00817        3.75321
C          3.30188       19.65755        4.34165
C          3.05321       19.71519        5.83948
C          0.67574       20.43707        3.52504
C         -0.70638       19.99355        3.07393
C         -0.80788       18.81384        6.84701
C         -1.60993       19.18912        5.61156
C         -3.09149       18.84289        5.76724
C         -3.71667       18.89757        4.38199
C         -2.82318       18.05637        3.47390
C         -3.08900       18.25969        1.99033
C          3.00825       15.80259        6.75178
C          2.93285       14.77583        5.62735
C          4.27918       14.09098        5.41064
C          5.19244       15.10837        4.73007
C          4.38691       15.88158        3.66843
C          4.87217       15.54020        2.26223
C          2.18672       14.10421        2.95276
C          1.64615       14.56314        1.60869
C          0.15799       18.03135       -0.15472
C          0.61353       16.58957        0.01849
C         -0.17102       15.62074       -0.86158
C         -1.49929       15.36233       -0.16131
C         -1.21289       15.08503        1.32188
C         -1.25603       13.58698        1.62006
C         -1.37282       15.37845        6.54081
C         -2.74895       15.48809        6.68687
C         -0.61918       15.25692        7.69997
C         -1.20365       15.27800        8.95374
C         -2.57543       15.41659        9.07609
C         -3.34984       15.51228        7.93314
H          1.08535       17.49631        5.21565
H         -0.09466       13.89070        4.91756
H         -1.85725       14.96174        4.08542
H          2.97127       17.75091        0.99962
H          4.46157       18.40502        1.68637
H          3.90680       18.95975        0.10321
H          1.99972       20.08857        1.07731
H          4.66294       20.76084        1.83222
H          3.29247       21.85512        1.80110
H          4.70123       21.29023        4.09381
H          3.01272       21.77428        4.11242
H          4.11030       18.93628        4.15602
H          2.33937       20.49833        6.08970
H          3.98238       19.92759        6.36747
H          2.66418       18.76160        6.19062
H          0.64955       20.66008        4.59700
H          1.00288       21.32738        2.98078
H         -0.71105       19.79167        1.99961
H         -1.46418       20.75487        3.28896
H         -0.84587       17.74147        7.01985
H         -1.22274       19.31782        7.72020
H          0.23297       19.11054        6.74102
H         -1.52234       20.27555        5.46383
H         -3.18393       17.83590        6.17662
H         -3.57820       19.53678        6.45610
H         -3.74564       19.93097        4.02572
H         -4.73940       18.51546        4.38614
H         -2.97167       16.99768        3.72286
H         -3.12899       19.31877        1.74170
H         -4.03816       17.80755        1.70478
H         -2.29421       17.79506        1.41011
H          3.22147       15.31270        7.70156
H          2.06265       16.33406        6.83490
H          3.78968       16.53456        6.55666
H          2.14264       14.05184        5.85221
H          4.70568       13.75631        6.35850
H          4.15680       13.21300        4.77373
H          6.04487       14.60716        4.26783
H          5.58944       15.79653        5.47806
H          4.52651       16.96027        3.81340
H          4.87484       14.46564        2.09344
H          5.89368       15.89913        2.13290
H          4.25560       16.01236        1.50312
H          3.07578       13.48375        2.81727
H          1.43542       13.51959        3.48993
H          1.21586       13.72424        1.05953
H          2.46921       14.96612        1.01077
H          0.59663       18.47130       -1.04978
H          0.47772       18.61174        0.71086
H         -0.92345       18.10356       -0.23863
H          1.68135       16.54389       -0.22734
H         -0.32050       16.03487       -1.86123
H          0.37801       14.68267       -0.96524
H         -2.02103       14.51732       -0.61355
H         -2.14433       16.23613       -0.27094
H         -1.97669       15.56125        1.94470
H         -2.29295       13.25403        1.63222
H         -0.82323       13.36634        2.59157
H         -0.73546       13.01226        0.85639
H         -3.36679       15.53645        5.80091
H          0.44971       15.13437        7.62017
H         -0.58890       15.18358        9.83884
H         -3.03810       15.43768       10.05292
H         -4.42511       15.60192        8.01454
