112
CSD_code = WAVKUB | q = 0 | S = 0 | Stoichiometry = C42H64P4RuSi | MND = 6
C          5.11329       17.56874        7.36229
C          3.98627       17.78515        8.14305
H          3.04122       17.98389        7.65622
C          4.04662       17.76812        9.52614
H          3.15205       17.93932       10.11016
C          5.25358       17.53483       10.16250
H          5.30681       17.51826       11.24227
C          6.39416       17.33486        9.40303
H          7.34469       17.16529        9.89181
C          6.31704       17.35592        8.02224
H          7.21540       17.21147        7.43648
C          2.54575       15.09436        5.93842
H          1.47887       14.88999        6.03065
H          2.75073       15.50311        4.94768
H          2.82229       15.84798        6.67062
C          3.36206       13.82562        6.13874
H          2.93268       13.03587        5.50990
C          3.39500       13.40136        7.60786
H          2.44064       13.62198        8.09033
H          3.57341       12.32784        7.70174
C          4.53432       14.16679        8.26717
H          4.72880       13.80241        9.27758
H          4.27221       15.22327        8.33539
C          5.77511       14.00629        7.38686
H          6.43413       14.87043        7.53229
C          6.54600       12.73130        7.72256
H          6.98542       12.82782        8.71505
H          7.34929       12.54945        7.01028
H          5.89449       11.86032        7.72233
C          5.64375       12.49999        4.93874
C          5.03098       11.29279        5.25501
H          4.15709       11.27002        5.88836
C          5.52504       10.09890        4.75938
H          5.02804        9.17022        5.00041
C          6.66537       10.09186        3.97458
H          7.06882        9.15812        3.61020
C          7.28877       11.28432        3.65622
H          8.18679       11.26900        3.05674
C          6.76732       12.49445        4.10218
C          9.27300       14.62106        5.94243
H         10.11872       14.20569        6.49069
H          8.38058       14.52136        6.55408
H          9.45939       15.68088        5.78875
C          9.10913       13.88737        4.62134
H          9.13299       12.80735        4.83037
C         10.22767       14.19799        3.62987
H         10.31705       15.27780        3.49189
H         11.18450       13.82172        3.99835
C          9.82947       13.54652        2.31676
H          9.89464       12.45992        2.40430
H         10.48505       13.85154        1.49747
C          8.39149       13.98472        2.03930
H          8.42896       15.04794        1.74416
C          7.74571       13.22354        0.89165
H          8.38213       13.29937        0.00945
H          6.77880       13.64996        0.64192
H          7.61192       12.16949        1.12230
C          9.00940       18.00055        3.88483
H         10.04020       18.35138        3.83347
H          8.99284       17.00168        4.31528
H          8.44576       18.65344        4.54829
C          8.37878       17.95878        2.49847
H          8.98940       17.30606        1.86100
C          8.24111       19.36060        1.90466
H          9.11876       19.96663        2.13956
H          8.14632       19.31632        0.81759
C          6.97433       19.96383        2.49817
H          6.72363       20.91274        2.02050
H          7.12103       20.14981        3.56342
C          5.84806       18.94632        2.30744
H          5.08905       19.08642        3.08323
C          5.18055       19.10669        0.94322
H          4.67573       20.07161        0.90367
H          4.43855       18.32985        0.76961
H          5.90615       19.06775        0.13362
C          6.34584       16.47437        1.01288
C          7.09037       16.67536       -0.14246
H          7.99399       17.26707       -0.11762
C          6.68680       16.11234       -1.34099
H          7.28182       16.25631       -2.23130
C          5.50671       15.39155       -1.40383
H          5.17104       14.98213       -2.34582
C          4.75521       15.19066       -0.25904
H          3.82610       14.64549       -0.32903
C          5.18581       15.69070        0.96554
C          2.32713       17.50473        2.80598
H          1.45985       17.95914        2.32680
H          3.15230       18.20945        2.76450
H          2.08636       17.33062        3.85092
C          2.67884       16.20567        2.10020
H          2.77602       16.41457        1.02496
C          1.58944       15.14915        2.28262
H          1.31421       15.07329        3.33560
H          0.69384       15.42728        1.72228
C          2.15696       13.82375        1.80372
H          2.20720       13.81173        0.71296
H          1.52821       12.98410        2.10946
C          3.55523       13.69000        2.40599
H          3.44251       13.40723        3.46458
C          4.38530       12.60544        1.73788
H          3.94563       11.62773        1.93604
H          5.39601       12.60714        2.13728
H          4.43949       12.74027        0.66051
P          7.47635       14.12934        3.68058
P          5.14114       14.13468        5.61697
P          6.64631       17.26215        2.63487
P          4.34048       15.39651        2.56915
Ru         5.92029       15.76750        4.20427
H          7.00951       16.13244        5.22009
Si         5.03557       17.62345        5.45680
H          5.79766       18.91721        5.29818
H          3.66581       18.20440        5.29197
