75
CSD_code = WEFFET | q = 0 | S = 0 | Stoichiometry = C24H43Cl2N2Si3Ta | MND = 8
Ta         3.95191        3.80143        0.95222
Cl         5.69498        5.02908        1.67236
Cl         4.50694        3.14134       -1.11635
N          3.27879        2.64880        2.14771
N          1.08506       -1.10497        5.62541
Si         1.40841        5.72718        2.48695
Si        -0.37814       -0.55414        6.42370
Si         1.88607       -2.65586        5.80534
C          2.15910        5.21351        0.80425
C          1.24795        4.53129       -0.11977
H          0.64300        3.68600        0.16167
C          1.25257        5.17298       -1.31730
H          0.68594        4.90692       -2.19295
C          2.14887        6.28310       -1.24005
H          2.34910        6.96495       -2.04896
C          2.69126        6.31890        0.00491
H          3.36914        7.06667        0.38908
C          1.89202        0.73322        2.50019
C          1.32971       -0.18624        3.37637
C          1.68572       -0.17977        4.72868
C          2.62492        0.74220        5.20069
C          3.18232        1.67632        4.33694
C          2.80673        1.70108        2.97526
C          1.51637        0.72504        1.04836
H          1.61739       -0.27624        0.63410
H          2.15713        1.40877        0.48906
H          0.47989        1.03670        0.91972
C          0.33250       -1.17761        2.85428
H         -0.45068       -0.67221        2.29224
H         -0.11698       -1.72658        3.67311
H          0.81772       -1.88636        2.18368
C          3.03650        0.74576        6.64262
H          2.54715       -0.05947        7.17705
H          2.77267        1.69363        7.10995
H          4.11492        0.62311        6.73179
C          4.18228        2.67316        4.84077
H          4.57282        3.26206        4.01176
H          5.01149        2.16745        5.33267
H          3.72185        3.34300        5.56629
C          0.41249        4.29101        3.24760
H          0.10946        4.52820        4.26194
H          1.00294        3.38168        3.27767
H         -0.48895        4.08763        2.67913
C          2.82514        6.28070        3.64256
H          2.44390        6.59120        4.60963
H          3.37721        7.11901        3.22768
H          3.52698        5.46633        3.80125
C          0.23889        7.20172        2.14185
H         -0.28614        7.50055        3.04272
H         -0.50541        6.94379        1.39513
H          0.78161        8.06631        1.77345
C         -1.01645        0.98080        5.49691
H         -0.25434        1.75146        5.44907
H         -1.88473        1.40095        5.99433
H         -1.30111        0.74610        4.47751
C         -0.08612       -0.07180        8.25031
H          0.47483        0.85272        8.34033
H          0.45411       -0.84004        8.79290
H         -1.03570        0.07501        8.75607
C         -1.68624       -1.94110        6.39446
H         -1.33396       -2.82795        6.91005
H         -1.95872       -2.23023        5.38466
H         -2.59225       -1.61294        6.89339
C          0.97391       -4.06895        4.89654
H         -0.08907       -4.07271        5.11231
H          1.37064       -5.03156        5.20499
H          1.09176       -4.00062        3.81992
C          1.97419       -3.11888        7.65304
H          0.98364       -3.20418        8.08664
H          2.52959       -2.39020        8.23456
H          2.46767       -4.07725        7.77755
C          3.63713       -2.50648        5.07692
H          4.25298       -1.81990        5.64691
H          3.60386       -2.13937        4.05648
H          4.13726       -3.46968        5.06852
