71
CSD_code = WEKMUU | q = 0 | S = 0 | Stoichiometry = C32H36HfSi2 | MND = 12
Hf         4.54820        4.74349        8.24524
Si         2.18326        7.36322        6.65237
C          3.45058        3.38371        6.94255
C          2.87510        2.64666        6.16443
C          2.91407        1.22014        4.18628
C          2.27147        0.37467        3.30310
C          0.92827        0.07710        3.47139
C          0.22558        0.63075        4.52966
C          0.85945        1.47702        5.41885
C          2.21187        1.77885        5.25563
H          3.96074        1.45641        4.06086
H          2.81970       -0.05615        2.47750
H          0.42955       -0.58500        2.77880
H         -0.82204        0.40039        4.66125
H          0.31528        1.91066        6.24604
C          2.07773        5.34553        8.78479
C          2.69172        5.03559       10.01013
C          3.67119        6.02517       10.26340
C          3.66390        6.92570        9.18228
C          2.67427        6.51230        8.25157
H          1.21477        4.84518        8.36997
H          2.34749        4.29310       10.71738
H          4.18525        6.17243       11.20370
H          4.20550        7.86049        9.13671
C          2.59651        6.21279        5.17942
H          3.65044        5.93786        5.17472
H          2.36982        6.68500        4.22823
H          2.02030        5.29325        5.22972
C          0.30282        7.70070        6.65547
H         -0.00207        8.21420        5.74950
H          0.01159        8.31875        7.49855
H         -0.26392        6.77735        6.71511
C          3.12792        9.01339        6.48956
H          2.88126        9.51222        5.55798
H          4.20169        8.85696        6.50578
H          2.87748        9.69284        7.29793
C          5.64596        6.10509        6.94434
C          7.01724        4.13918        8.78734
C          6.40374        4.45183       10.01225
C          5.42270        3.46429       10.26688
C          5.42824        2.56231        9.18697
C          6.41875        2.97264        8.25576
C          6.21829        6.84406        6.16570
H          7.88107        4.63750        8.37185
H          6.74901        5.19490       10.71839
H          4.90824        3.31936       11.20731
H          4.88501        1.62840        9.14260
Si         6.90915        2.11835        6.65814
C          6.87663        7.71459        5.25590
C          6.50505        3.27282        5.18583
C          8.78745        1.76919        6.66667
C          5.95641        0.47312        6.49291
C          6.16934        8.27563        4.19115
C          8.22950        8.01718        5.41412
H          5.45171        3.55003        5.17751
H          6.73460        2.80253        4.23441
H          7.08297        4.19105        5.24084
H          9.09210        1.25544        5.76076
H          9.07154        1.14746        7.50950
H          9.36014        2.68857        6.73030
H          6.20268       -0.02687        5.56185
H          4.88340        0.63480        6.50682
H          6.20186       -0.20758        7.30177
C          6.80740        9.12429        3.30774
H          5.12243        8.03874        4.06935
C          8.85885        8.86650        4.52462
H          8.77753        7.58180        6.23783
C          8.15106        9.42261        3.47104
H          6.25522        9.55695        2.48574
H          9.90682        9.09740        4.65239
H          8.64614       10.08714        2.77816
