76
CSD_code = WEPBEY | q = 0 | S = 0 | Stoichiometry = C21H45Cl3N4OSiW | MND = 6
W          0.62892       -0.66041        4.52384
Cl         0.01330       -2.95435        4.52367
Cl        -1.04972       -0.42320        6.14154
O          0.73476        1.27495        4.52366
Si        -0.02387        2.69943        4.52374
C         -1.92729        2.53635        4.52368
C          0.51091        3.70000        6.06928
N          1.84734       -0.91743        5.86760
N          2.56921       -1.01261        6.90414
C          2.97270        0.25605        7.54972
C          4.07067        0.04781        8.59529
C          3.80063       -1.15470        9.48626
C          3.76508       -2.39618        8.60911
C          2.66591       -2.34313        7.54368
C          1.71573        0.88018        8.16712
C          3.48559        1.17636        6.43635
C          1.28954       -2.67702        8.13205
C          2.99314       -3.34982        6.43541
H         -2.27785        1.99575        5.39949
H         -2.40479        3.51133        4.52368
H          0.11507        3.27498        6.98606
H          1.59020        3.76473        6.16771
H          0.12910        4.71157        5.98873
H          4.14766        0.95776        9.19216
H          5.02786       -0.10041        8.08951
H          2.85958       -1.03388       10.02207
H          4.59377       -1.25038       10.22963
H          3.60299       -3.28807        9.21592
H          4.73539       -2.50121        8.11763
H          1.92384        1.89669        8.49035
H          0.92414        0.90301        7.41581
H          1.36172        0.30927        9.02057
H          4.32201        0.71413        5.91558
H          2.68326        1.36647        5.72023
H          3.81613        2.12027        6.86082
H          0.51982       -2.49615        7.37959
H          1.25152       -3.72416        8.41961
H          1.06711       -2.06728        9.00313
H          2.17054       -3.40472        5.72403
H          3.89771       -3.05353        5.90801
H          3.14673       -4.33446        6.86793
Cl        -1.04959       -0.42292        2.90585
N          1.84713       -0.91771        3.17992
C          0.51093        3.69998        2.97819
H         -2.27788        1.99573        3.64789
N          2.56913       -1.01273        2.14342
H          0.11516        3.27498        2.06137
H          1.59023        3.76471        2.87981
H          0.12913        4.71155        3.05871
C          2.97266        0.25598        1.49788
C          2.66589       -2.34318        1.50379
C          4.07061        0.04785        0.45224
C          1.71577        0.88019        0.88039
C          3.48562        1.17641        2.61113
C          3.76507       -2.39617        0.43836
C          1.28949       -2.67700        0.91547
C          2.99312       -3.34980        2.61212
C          3.80060       -1.15466       -0.43875
H          4.14765        0.95780       -0.14464
H          5.02779       -0.10040        0.95800
H          1.92386        1.89671        0.55717
H          0.92419        0.90299        1.63170
H          1.36175        0.30928        0.02695
H          4.32202        0.71414        3.13189
H          2.68331        1.36653        3.32726
H          3.81618        2.12032        2.18668
H          3.60296       -3.28806       -0.16845
H          4.73538       -2.50121        0.92983
H          0.51978       -2.49614        1.66795
H          1.25150       -3.72415        0.62792
H          1.06707       -2.06726        0.04439
H          2.17053       -3.40471        3.32352
H          3.89772       -3.05352        3.13948
H          3.14670       -4.33441        2.17956
H          2.85956       -1.03385       -0.97455
H          4.59373       -1.25034       -1.18213
