108
CSD_code = WEXVIH | q = 0 | S = 0 | Stoichiometry = C45H56BrCoN3PSi | MND = 4
C          0.41157        4.29196       12.58129
C         -1.45667        4.24747       13.80677
H         -2.48072        4.45882       14.03842
C         -0.51955        3.56889       14.50659
H         -0.58017        3.08026       15.45651
C         -1.60339        5.42277       11.66884
C         -2.17919        4.74846       10.59104
C         -2.96202        5.47890        9.70904
H         -3.42740        4.98277        8.87216
C         -3.14889        6.83597        9.88434
H         -3.76084        7.38902        9.18743
C         -2.54143        7.49088       10.93691
H         -2.67456        8.55540       11.04918
C         -1.75763        6.79757       11.84817
C         -1.96501        3.26831       10.38042
H         -1.17431        2.92339       11.05494
C         -1.49668        2.98268        8.95297
H         -1.17802        1.94542        8.86751
H         -0.66328        3.63520        8.70556
H         -2.29223        3.15431        8.23307
C         -3.24524        2.49544       10.70691
H         -3.54307        2.66213       11.74081
H         -3.08897        1.42858       10.56090
H         -4.05921        2.81683       10.06125
C         -1.06952        7.53100       12.97468
H         -0.47389        6.82091       13.55666
C         -2.08995        8.17366       13.91656
H         -2.68936        8.91248       13.39101
H         -1.57928        8.66939       14.73952
H         -2.75992        7.42154       14.32987
C         -0.10829        8.57500       12.40295
H          0.56245        8.10578       11.68817
H          0.48032        9.02077       13.20221
H         -0.65020        9.36547       11.89146
C          1.88259        3.08312       13.94117
C          2.28707        2.44465       15.09810
H          1.59784        2.30150       15.91429
C          3.60179        2.01859       15.17907
H          3.97222        1.52959       16.06563
C          4.43816        2.23853       14.09022
H          5.46917        1.92680       14.13718
C          3.96312        2.85795       12.94573
C          4.86215        3.09848       11.76924
H          5.57118        3.87778       12.07764
C          3.60935        2.66425        9.11214
H          4.52176        2.06513        9.01061
C          2.45590        1.76400        9.56186
H          2.70569        1.28545       10.51326
H          1.56797        2.39164        9.72142
C          2.13973        0.69877        8.51990
H          1.30061        0.08705        8.85972
H          3.00448        0.03952        8.40646
C          1.81021        1.34935        7.18045
H          1.60852        0.58070        6.43107
H          0.91373        1.96333        7.28428
C          2.96870        2.23068        6.72747
H          2.72486        2.70456        5.77465
H          3.85761        1.61111        6.57743
C          3.26965        3.30677        7.76817
H          4.10192        3.91861        7.41552
H          2.39905        3.95647        7.88303
C          4.89008        5.24885        9.76093
H          4.30649        5.63947        8.91577
C          6.26969        4.82290        9.27079
H          6.86478        4.45076       10.10883
H          6.18627        4.01836        8.53720
C          6.98429        6.02035        8.64593
H          7.97609        5.71955        8.29994
H          6.41679        6.36702        7.77931
C          7.10742        7.15859        9.65515
H          7.60454        8.01294        9.19123
H          7.72469        6.83115       10.49621
C          5.73033        7.57288       10.16680
H          5.13314        7.95829        9.33807
H          5.83147        8.37019       10.90622
C          5.01176        6.37861       10.78526
H          5.57028        6.03811       11.66317
H          4.01265        6.67675       11.11756
C          7.27147        1.31932       12.60374
C          8.10205        2.35915       13.01359
H          7.98328        3.33920       12.57237
C          9.07584        2.16314       13.97510
H          9.70812        2.98479       14.27960
C          9.23981        0.91275       14.54775
H          9.99796        0.75658       15.30109
C          8.42826       -0.13565       14.14843
H          8.55302       -1.11434       14.58900
C          7.45705        0.06845       13.18486
H          6.82635       -0.75374       12.87726
C          5.00947       -0.01298       11.00087
C          4.06236       -0.48267       11.90765
H          3.83319        0.09847       12.78992
C          3.40683       -1.68266       11.69924
H          2.67244       -2.02572       12.41403
C          3.69144       -2.44386       10.57827
H          3.18019       -3.38106       10.41412
C          4.63658       -1.99773        9.67029
H          4.86609       -2.58776        8.79455
C          5.28490       -0.79470        9.88282
H          6.02147       -0.45299        9.16952
N         -0.87804        4.68079       12.64036
N          0.62011        3.60186       13.74245
N          2.68789        3.29944       12.87187
Si         5.95701        1.59802       11.26806
P          3.81320        3.92008       10.46873
Co         1.96935        4.30445       11.50713
Br         1.25429        5.73203        9.88923
H          6.69765        1.92563       10.03461
