95
CSD_code = WIFDIA | q = 0 | S = 0 | Stoichiometry = C30H57N3ORuSi3 | MND = 6
Ru         0.11544        8.42071        3.18525
Si        -2.13746        6.56437        5.20860
Si        -1.94953        9.73430        0.68579
Si         2.93802       10.53315        3.56397
O         -1.38766       10.59994        4.15726
N         -0.81006        9.69972        3.66897
N          1.35923        6.83044        2.82801
C          1.54889        6.20853        1.65653
H          0.99823        6.59741        0.81075
C          2.38373        5.13112        1.48221
H          2.46954        4.69825        0.49890
C          3.10495        4.61147        2.56528
C          2.91514        5.25339        3.77371
H          3.43652        4.91777        4.65225
C          2.05232        6.34774        3.88834
C          1.84133        7.06228        5.13305
C          2.45670        6.73528        6.34216
H          3.11781        5.88609        6.38303
C          2.23154        7.48423        7.48534
C          1.36722        8.57561        7.34449
H          1.13920        9.22166        8.17474
C          0.78521        8.84021        6.12504
H          0.12098        9.68795        6.02463
N          0.99650        8.10824        5.03057
C          4.02423        3.42188        2.37549
C          3.19462        2.23383        1.86808
H          2.41517        1.98327        2.58472
H          3.83389        1.36407        1.73614
H          2.72334        2.45692        0.91504
C          5.09796        3.78808        1.34102
H          5.67292        4.64718        1.68057
H          4.65595        4.03155        0.37899
H          5.77860        2.95167        1.20057
C          4.72218        3.00749        3.67319
H          5.34335        3.81300        4.05881
H          5.36622        2.15264        3.47971
H          3.99894        2.71569        4.43159
C          2.90492        7.10963        8.79154
C          4.42717        7.17702        8.60215
H          4.72653        8.17955        8.30339
H          4.76544        6.47991        7.84022
H          4.92935        6.93116        9.53493
C          2.48579        5.68268        9.17346
H          1.40397        5.62039        9.27037
H          2.93399        5.40545       10.12477
H          2.80210        4.96017        8.42604
C          2.51692        8.04951        9.93537
H          1.44496        8.02309       10.11697
H          2.81897        9.07233        9.72229
H          3.01930        7.73553       10.84768
C         -1.41597        6.88990        3.49320
H         -2.25046        7.17428        2.84786
H         -1.03505        5.94098        3.09360
C         -0.61811        8.46494        1.15904
H          0.22358        8.63077        0.47575
H         -1.02015        7.47615        0.90706
C          1.75692        9.63015        2.39962
H          2.35159        9.00219        1.72475
H          1.28005       10.38474        1.76779
C         -2.78726        8.13963        6.07483
H         -1.98514        8.75695        6.46621
H         -3.43879        7.88608        6.90627
H         -3.36157        8.75061        5.38528
C         -0.93114        5.65344        6.39459
H         -0.34812        6.34426        6.99490
H         -0.23522        5.02217        5.84890
H         -1.48004        5.01378        7.07908
C         -3.64291        5.39408        5.00632
H         -4.39963        5.83639        4.36669
H         -4.10816        5.17954        5.96349
H         -3.35413        4.44597        4.56310
C         -3.56227        9.52575        1.69686
H         -4.02193        8.55924        1.51331
H         -4.28786       10.28760        1.42800
H         -3.38200        9.60612        2.76383
C         -2.42770        9.48920       -1.15547
H         -2.81998        8.49335       -1.33545
H         -1.57317        9.62750       -1.81010
H         -3.18955       10.19944       -1.45951
C         -1.31671       11.53427        0.84889
H         -0.44610       11.70410        0.22247
H         -1.03905       11.77498        1.86992
H         -2.08113       12.24199        0.54233
C          2.03731       11.67141        4.81567
H          0.97201       11.71762        4.61134
H          2.41824       12.68630        4.75857
H          2.16456       11.33360        5.84002
C          4.08031       11.65703        2.51153
H          3.50301       12.37858        1.94261
H          4.66763       11.07881        1.80491
H          4.77347       12.21158        3.13686
C          4.11987        9.35368        4.51695
H          3.73472        9.08793        5.49640
H          5.08761        9.82276        4.66685
H          4.28880        8.43091        3.96839
