101
CSD_code = WIKBOJ | q = 0 | S = 0 | Stoichiometry = C35H56AsN5Si3Zr | MND = 6
Zr         6.54192        3.20019        4.00977
N          8.05754        4.69344        4.09699
N          4.53388        3.49389        4.57819
N          6.57880        2.33664        2.09763
N          5.62351        4.93024        2.48588
N          7.52309        0.61587        4.74180
As         7.15174        1.66389        7.45756
Si         9.45517        4.96168        5.04292
Si         3.37153        2.25945        4.38155
Si         7.96469        1.59354        1.44095
C          7.97273        5.51197        2.89961
H          8.28035        4.92728        2.01206
H          8.63696        6.38773        2.94900
C          4.09479        4.85769        4.37911
H          4.69843        5.54517        4.99108
H          3.04470        5.00535        4.67172
C          5.54612        2.85135        1.22878
H          4.55291        2.60774        1.63737
H          5.59849        2.43021        0.21490
C          6.54551        6.04200        2.69529
H          6.25681        6.57449        3.60958
H          6.51525        6.75585        1.85288
C          4.25571        5.24430        2.89762
H          3.56071        4.63484        2.31644
H          4.01413        6.30616        2.72860
C          5.67895        4.38357        1.12903
H          6.65214        4.60404        0.68267
H          4.89820        4.81912        0.48568
C         11.09089        5.12561        4.04623
H         10.97664        5.79803        3.20112
H         11.41981        4.16628        3.65963
H         11.89037        5.51929        4.66570
C          9.33611        6.59505        6.06734
H          8.53769        6.55656        6.80326
H          9.14815        7.45174        5.42538
H         10.25895        6.79087        6.60330
C          9.74082        3.53363        6.27783
H          9.20289        3.68694        7.21211
H         10.79440        3.46763        6.52417
H          9.44656        2.57310        5.85656
C          2.20571        2.13922        5.91714
H          2.66465        2.54709        6.81294
H          1.90913        1.11654        6.12558
H          1.29524        2.70485        5.74176
C          4.33634        0.65290        3.98138
H          4.71919        0.16169        4.87059
H          5.18644        0.86511        3.32396
H          3.68936       -0.06215        3.48224
C          2.05140        2.43627        2.97266
H          1.56912        3.40976        3.01214
H          1.26934        1.69284        3.09642
H          2.45581        2.30764        1.97226
C          8.41814        2.17370       -0.34320
H          8.61810        3.24064       -0.39067
H          7.61446        1.96079       -1.04139
H          9.30243        1.66175       -0.70735
C          7.76599       -0.31424        1.29029
H          7.44989       -0.73936        2.23704
H          8.69386       -0.79288        0.99434
H          7.01592       -0.57354        0.54851
C          9.44916        2.05445        2.55561
H         10.03518        2.86192        2.12792
H         10.11561        1.21276        2.70250
H          9.08773        2.37595        3.53418
C          7.11973        1.59053        5.42471
C          8.06321       -0.62109        5.27651
H          7.68910       -1.44208        4.65777
H          7.73549       -0.76432        6.32366
C          9.56413       -0.57089        5.22813
C         10.27600       -0.05218        6.30397
H          9.74181        0.26110        7.19691
C         11.65385        0.05633        6.24637
H         12.19455        0.46262        7.08815
C         12.33835       -0.35895        5.11657
H         13.41433       -0.27631        5.07239
C         11.63731       -0.88756        4.04595
H         12.16687       -1.21950        3.16443
C         10.25849       -0.98990        4.09955
H          9.71414       -1.39810        3.26180
C          5.91874        3.15659        7.56655
C          6.25367        4.33201        6.89580
H          7.10737        4.34619        6.21724
C          5.57094        5.51195        7.15654
H          5.89744        6.43687        6.69534
C          4.50234        5.52189        8.03772
H          3.96494        6.43844        8.23406
C          4.14392        4.35182        8.68711
H          3.31691        4.35341        9.38350
C          4.86720        3.19230        8.47849
H          4.61813        2.29968        9.04017
C          5.94779        0.18247        7.95313
C          4.62772        0.11538        7.52795
H          4.23105        0.91543        6.92064
C          3.82417       -0.95456        7.87900
H          2.79860       -0.99001        7.53845
C          4.32932       -1.97750        8.66347
H          3.70149       -2.81253        8.93850
C          5.64460       -1.92344        9.09864
H          6.04180       -2.71699        9.71566
C          6.44473       -0.85233        8.74774
H          7.47684       -0.80135        9.08811
