83
CSD_code = WIWWEF | q = 0 | S = 0 | Stoichiometry = C32H47OSi2Y | MND = 8
C         17.68055        8.13938        6.95361
C         17.11471        8.98322        5.97353
C         15.71728        9.06151        6.16078
C         15.38375        8.26549        7.28803
C         16.61389        7.68108        7.79257
C         16.57296        6.68810        8.83128
C         17.73838        6.15897        9.41401
H         18.69892        6.55266        9.12726
C         17.68734        5.15704       10.35340
H         18.59971        4.77120       10.78525
C         16.45779        4.63573       10.73722
H         16.40728        3.82915       11.45397
C         15.30078        5.15893       10.20602
H         14.36545        4.72851       10.52863
C         15.31111        6.20412        9.27321
C         14.08070        6.81565        8.79589
C         12.82882        6.41703        9.28213
H         12.75408        5.60433        9.98808
C         11.65867        7.02847        8.89214
H         10.71283        6.69084        9.29078
C         11.70351        8.08483        7.99055
H         10.79265        8.58293        7.69040
C         12.91315        8.49398        7.48156
H         12.93197        9.31935        6.79198
C         14.12076        7.87624        7.84966
C         13.71747        9.56788       11.02262
H         13.15781        9.14056       10.18447
H         13.58677       10.65357       11.02768
C         13.30364        8.92063       12.34342
H         12.27489        8.57116       12.31442
H         13.41577        9.62462       13.16904
C         14.31469        7.78562       12.47324
H         14.45687        7.45030       13.49737
H         14.01854        6.94111       11.85323
C         15.56553        8.43430       11.89768
H         16.06176        9.05927       12.65399
H         16.28019        7.71325       11.49522
C         18.61757        9.83146       10.33592
H         18.28529        9.97974       11.37048
H         18.97010        8.79520       10.28044
C         21.69860       10.59601       10.87159
H         21.57991       10.61177       11.95040
H         22.47901       11.30647       10.61721
H         22.05387        9.60752       10.59729
C         19.52591       12.77256       10.53379
H         18.55658       13.04270       10.12264
H         20.24476       13.51844       10.21055
H         19.45523       12.83835       11.61475
C         20.40705       11.03864        8.10114
H         20.99181       10.17532        7.79919
H         20.97384       11.92137        7.82155
H         19.48308       11.03776        7.51834
C         16.42619       12.21143        7.90610
H         17.33311       12.82389        7.96069
H         16.19913       12.10614        6.83961
C         15.34555       13.11012       10.65426
H         15.70491       12.14051       11.00531
H         14.45381       13.36407       11.21999
H         16.10258       13.84641       10.90560
C         14.69676       14.92560        8.25183
H         15.56795       15.54115        8.45257
H         13.85897       15.35749        8.79085
H         14.47969       15.00438        7.19132
C         13.39459       12.12695        8.41803
H         13.01032       12.35840        7.42951
H         12.61049       12.36897        9.12893
H         13.56547       11.05236        8.46315
C         19.10153        7.64632        6.93088
H         19.69100        8.01944        7.77220
H         19.59091        7.96628        6.01387
H         19.12011        6.55580        6.94902
C         17.86762        9.64234        4.85331
H         17.81521        9.03957        3.94425
H         18.91624        9.77595        5.11077
H         17.45406       10.62496        4.63064
C         14.78495        9.75748        5.21263
H         15.32724       10.07976        4.32694
H         14.32141       10.63958        5.66084
H         13.99585        9.07878        4.88761
O         15.11406        9.27267       10.82354
Si        20.04920       11.01289        9.98812
Si        15.00717       13.10576        8.76152
Y         16.80142       10.08369        8.86148
