138
CSD_code = WIZCUG | q = 0 | S = 0 | Stoichiometry = C53H78O5SiW | MND = 9
W          6.76056       11.53769        4.08157
Si         4.25895       12.09200        3.80311
C          6.07507       12.19116        2.19441
O          4.77653       12.23226        2.09583
O          3.89042       13.68468        4.03068
C          4.50838       14.81302        3.48787
H          5.54587       14.56981        3.20736
H          4.53677       15.57381        4.27985
C          2.66330       11.04503        4.11047
C          7.09831       10.10267        2.80642
O          7.30812        9.20577        2.09958
C          5.75975        9.93417        4.60409
O          5.22704        8.95208        4.91006
C          6.76053       12.53807        0.88040
C          6.23841       11.58114       -0.20311
H          6.51003       10.55700        0.03407
H          6.67568       11.84321       -1.16428
H          5.15711       11.64989       -0.27861
C          6.38871       13.97370        0.47694
H          6.79576       14.19594       -0.50719
H          6.79538       14.69510        1.18291
H          5.30861       14.09146        0.44303
C          8.27899       12.41108        0.96748
H          8.56784       11.40472        1.25817
H          8.67841       13.11765        1.68575
H          8.72096       12.62556       -0.00393
C          3.79035       15.38189        2.29088
C          2.63181       14.80564        1.79000
H          2.23223       13.92481        2.26512
C          1.99785       15.35132        0.69396
H          1.09446       14.91482        0.29864
C          2.50707       16.49011        0.07084
C          3.66485       17.07426        0.57350
H          4.08664       17.95766        0.12077
C          4.29203       16.51941        1.67505
H          5.18997       16.98446        2.05791
O          1.80444       16.94636       -1.00498
C          2.26336       18.09774       -1.66803
H          3.26357       17.94928       -2.08857
H          2.27429       18.96816       -1.00358
H          1.55664       18.27360       -2.47758
C          2.01263       11.14393        5.36340
C          1.15624       10.14224        5.81317
C          0.89042        9.02145        5.05824
H          0.27157        8.22307        5.43742
C          1.39377        8.98222        3.77888
C          2.25959        9.96296        3.29629
C          1.98829       12.29133        6.36844
C          1.05947       11.80074        7.51144
H          1.59321       11.78653        8.45986
H          0.22041       12.48473        7.62523
C          0.55867       10.38926        7.17217
C          1.08896        7.88958        2.79053
C          1.61309        8.49107        1.48229
H          0.77950        8.88681        0.90669
H          2.09527        7.74014        0.86501
C          2.59064        9.63650        1.84103
C          3.41465       13.76294        7.92431
H          2.63161       13.68794        8.67481
H          3.28821       14.70374        7.39500
H          4.36961       13.79530        8.44685
C          3.37628       12.58185        6.95637
H          3.71599       11.67926        7.46620
H          4.06797       12.76637        6.14050
C          1.40070       13.55746        5.71189
H          1.21442       14.30096        6.48944
H          2.14171       13.95835        5.02743
C          0.10453       13.32953        4.94216
H         -0.71100       13.05198        5.60574
H          0.22665       12.54063        4.20489
H         -0.18062       14.24381        4.42525
C         -1.72013       10.60346        8.37681
H         -1.39946       11.53946        8.82766
H         -1.55561        9.80355        9.09369
H         -2.78958       10.66845        8.18623
C         -0.98017       10.33438        7.07039
H         -1.29720       11.06434        6.32286
H         -1.27606        9.35006        6.70242
C          1.04121        9.32001        8.17261
H          0.71968        9.60211        9.17714
H          0.55351        8.37545        7.92132
C          2.54903        9.09540        8.18317
H          3.07208        9.96485        8.57297
H          2.91900        8.89135        7.18122
H          2.79054        8.24742        8.82119
C         -1.34098        8.76386        2.68248
H         -1.18759        9.34632        1.77841
H         -1.17508        9.41506        3.53679
H         -2.37789        8.43324        2.69544
C         -0.41359        7.55407        2.72953
H         -0.59374        6.93944        1.84521
H         -0.67292        6.95454        3.60526
C          1.87912        6.63241        3.21632
H          2.94119        6.88022        3.21869
H          1.60466        6.38727        4.24531
C          1.65850        5.40098        2.34427
H          1.84790        5.61911        1.29604
H          0.64255        5.02620        2.43771
H          2.33917        4.60958        2.65123
C          4.48046        8.50783        0.43564
H          4.25951        9.15414       -0.40922
H          4.00491        7.54455        0.26979
H          5.55391        8.33633        0.46530
C          4.04967        9.14338        1.75489
H          4.70144        9.99137        1.95011
H          4.22030        8.42254        2.55637
C          2.36112       10.83066        0.89745
H          3.14973       11.56073        1.05348
H          2.43254       10.47266       -0.13258
C          1.02161       11.53631        1.07988
H          0.89246       11.84955        2.11226
H          0.18338       10.89732        0.81340
H          0.98319       12.41572        0.44110
C          7.35078       13.25292        5.58988
C          8.33271       13.29600        4.54410
C          9.03777       12.06167        4.55093
C          8.48658       11.24613        5.58908
C          7.46111       11.99046        6.24467
C          6.65940       14.46314        6.15432
H          7.10994       14.72057        7.11603
H          5.59784       14.29511        6.31597
H          6.77245       15.31825        5.49169
C          8.76942       14.57259        3.87609
H          9.12087       15.27384        4.63688
H          7.95984       15.05639        3.32740
H          9.59433       14.39982        3.18823
C         10.30219       11.72134        3.81747
H         11.14799       11.78232        4.50627
H         10.49139       12.40073        2.99050
H         10.26841       10.70735        3.42084
C          9.06707        9.94888        6.07266
H          8.31663        9.35766        6.59506
H          9.89155       10.14149        6.76380
H          9.45340        9.35718        5.24386
C          6.83080       11.60958        7.55270
H          6.03984       12.30481        7.81602
H          7.58560       11.63254        8.34238
H          6.40964       10.60507        7.51997
