65
CSD_code = WIZYUZ | q = 0 | S = 0 | Stoichiometry = C22H38ClNNbPSi | MND = 10
Nb        -0.58412        2.25435        8.18493
Si         2.08532        3.94115        8.71686
P          0.28773        0.33483        6.75059
Cl        -0.90656        0.22349        9.53855
N          0.78176        2.98929        9.38822
C         -2.16290        2.00942        5.90564
H         -2.11611        1.41213        5.00524
C         -1.47087        3.22398        6.12061
H         -0.90464        3.75405        5.36550
C         -1.93960        3.78930        7.34836
H         -1.93593        4.85461        7.56874
C         -2.88312        2.85004        7.89743
H         -3.57198        3.05131        8.70857
C         -3.01241        1.78005        6.98822
H         -3.68488        0.94123        7.10382
C          0.75491        2.89972       10.79948
C          1.56277        1.96380       11.46905
C          1.56565        1.93587       12.85563
H          2.19344        1.22383       13.36969
C          0.78704        2.80488       13.59384
H          0.80312        2.77035       14.67312
C         -0.01586        3.71472       12.93649
H         -0.63351        4.38812       13.51170
C         -0.95235        4.78166       10.87879
H         -0.76384        4.74714        9.79766
C         -0.69537        6.21336       11.35125
H         -1.31290        6.90999       10.78667
H          0.34901        6.48040       11.20718
H         -0.93438        6.32883       12.40544
C         -2.40751        4.37454       11.12992
H         -2.54858        3.32873       10.85530
H         -3.08727        4.99607       10.54868
H         -2.65869        4.48367       12.18271
C          2.43195        0.99227       10.70611
H          2.17839        1.09150        9.64479
C          3.91434        1.32656       10.89211
H          4.19082        1.26020       11.94196
H          4.12842        2.33280       10.54154
H          4.52955        0.62585       10.33097
C          2.15719       -0.45238       11.13101
H          1.10307       -0.68309       10.99997
H          2.41957       -0.61195       12.17345
H          2.74899       -1.13832       10.52707
C          2.96854        4.97770       10.05132
H          4.00137        5.16178        9.77394
H          2.96254        4.47739       11.01463
H          2.49268        5.94530       10.18161
C          1.45495        5.13240        7.36902
H          1.04171        4.59130        6.52293
H          2.27657        5.73836        7.00239
H          0.69156        5.80968        7.74308
C         -0.03845        3.78293       11.55107
C         -0.76283       -1.13744        6.42917
H         -1.08984       -1.52025        7.39546
H         -0.18751       -1.89605        5.89834
H         -1.63656       -0.85944        5.84353
C          1.75681       -0.49873        7.45223
H          2.08023       -1.29974        6.78590
H          1.48347       -0.90930        8.42263
H          2.56178        0.22554        7.57372
C          0.94649        0.73060        5.07747
H          0.16484        1.13632        4.44092
H          1.36147       -0.16407        4.61408
H          1.72949        1.47996        5.18993
H          3.06433        3.01810        8.07668
