89
CSD_code = WOFCEC | q = 0 | S = 0 | Stoichiometry = C35H51NSiZr | MND = 8
Zr        13.56318        7.83316        9.89116
Si        15.96515        6.03995        9.51495
N         15.39240        7.21905       10.62673
C         14.35014        5.97299        8.50953
C         13.13175        5.56226        9.14120
C         12.90465        4.70714       10.24029
H         13.75206        4.19424       10.66905
C         11.62438        4.47917       10.70413
C         10.53524        5.10419       10.05708
H          9.53069        4.90486       10.39772
C         10.70955        5.97162        9.00349
H          9.85145        6.43262        8.52945
C         12.00334        6.24954        8.55116
C         12.53263        7.13728        7.55569
C         11.94047        8.04585        6.67235
H         10.86345        8.15985        6.64357
C         12.73833        8.78439        5.83047
H         12.26651        9.48385        5.15723
C         14.14394        8.64751        5.81597
C         14.74050        7.73624        6.66173
H         15.80536        7.57164        6.64132
C         13.96735        6.96175        7.54898
C         11.33721        3.58679       11.90475
C         10.68169        4.43675       13.00348
H          9.74718        4.87339       12.66170
H         11.34969        5.24450       13.30000
H         10.47118        3.82508       13.87859
C         12.60288        2.95472       12.49119
H         12.33365        2.32649       13.33834
H         13.29223        3.71772       12.84556
H         13.10483        2.32987       11.75638
C         10.39159        2.45173       11.48773
H         10.83943        1.86788       10.68648
H          9.43809        2.83528       11.13655
H         10.20115        1.79203       12.33202
C         14.94632        9.52527        4.86535
C         16.45538        9.28769        4.97355
H         16.97671        9.94977        4.28458
H         16.71080        8.26358        4.71238
H         16.81298        9.49878        5.97882
C         14.67613       10.99951        5.20078
H         14.95143       11.20456        6.23342
H         13.62725       11.25149        5.07131
H         15.26290       11.64680        4.55183
C         14.52027        9.23229        3.42001
H         15.09545        9.84307        2.72681
H         13.46606        9.44480        3.26610
H         14.69373        8.18442        3.18424
C         17.49393        6.67095        8.53486
H         17.41500        7.73270        8.32075
H         17.62340        6.14009        7.59810
H         18.39801        6.52360        9.11680
C         16.47871        4.28290       10.12421
H         17.55552        4.22677       10.24547
H         16.19189        3.51448        9.41366
H         16.03331        4.02702       11.08040
C         15.70072        7.43009       12.01829
C         17.14918        7.07314       12.38297
H         17.82442        7.67277       11.77024
H         17.32830        6.02413       12.14743
C         17.40113        7.32965       13.86875
H         18.43668        7.06401       14.10917
C         16.45183        6.47610       14.70910
H         16.64055        6.64757       15.77118
H         16.62511        5.41735       14.50506
C         15.00581        6.84115       14.37150
H         14.32601        6.22976       14.97665
C         14.75410        6.57327       12.88840
H         14.94235        5.52020       12.66345
H         13.71180        6.80620       12.61028
C         14.76456        8.31929       14.67442
H         14.92069        8.51030       15.73839
H         13.73215        8.58306       14.43190
C         15.72494        9.17199       13.84564
H         15.55599       10.23142       14.06960
C         15.47201        8.91929       12.35884
H         16.15043        9.52297       11.74737
H         14.43513        9.18872       12.09444
C         17.16869        8.80537       14.18680
H         17.36142        8.99286       15.24547
H         17.85555        9.42401       13.60588
C         13.99207        9.90736        9.22403
H         13.83666       10.70194        9.96998
H         13.36515       10.16297        8.35385
H         15.04445        9.97097        8.89781
C         11.84579        8.25494       11.24342
H         11.41911        7.33665       11.68101
H         11.04578        8.69424       10.61869
H         11.99010        8.95978       12.07785
