83
CSD_code = WORCOV | q = 0 | S = 0 | Stoichiometry = C36H39Cl2NbOP2Si2 | MND = 10
Nb         3.40800        3.81066        4.54450
Cl         4.77140        3.86932        6.58285
Cl         3.11463        1.39714        5.02498
P          5.00747        2.46628        3.04477
P          1.61688        3.83524        6.39702
Si         6.32217        5.14569        2.70050
Si         2.25770        6.86242        6.51602
O          1.26419        3.20979        2.32974
C          4.64724        5.64388        3.39223
C          4.40607        6.13789        4.68350
C          3.02292        6.26756        4.90915
C          2.37775        5.86231        3.70777
C          3.37097        5.48275        2.77606
C          5.91879        3.48990        1.82199
C          1.65417        5.30591        7.48338
C          7.54204        4.80933        4.12342
C          6.99635        6.40525        1.44030
C          3.59219        7.69089        7.59642
C          0.84323        8.09731        6.17167
C          4.14720        1.24077        1.99982
C          3.44930        1.65181        0.86804
C          2.74396        0.73772        0.10805
C          2.71767       -0.59715        0.47568
C          3.39365       -1.01154        1.61111
C          4.10171       -0.10044        2.37263
C          6.34870        1.43610        3.72682
C          6.55874        1.35370        5.09669
C          7.58910        0.57230        5.59340
C          8.40828       -0.13213        4.72897
C          8.19118       -0.06598        3.36084
C          7.16518        0.71106        2.86005
C          1.39298        2.51543        7.63644
C          2.50157        1.84956        8.14755
C          2.33854        0.89263        9.13320
C          1.07502        0.59870        9.61759
C         -0.02999        1.26842        9.11812
C          0.12470        2.22509        8.13210
C         -0.01078        3.83670        5.59167
C         -0.33249        2.67762        4.88369
C         -1.52123        2.59754        4.18638
C         -2.39541        3.67507        4.17964
C         -2.07906        4.82705        4.87802
C         -0.89036        4.91070        5.58490
C          2.08498        3.34821        3.13528
H          5.17585        6.41507        5.38863
H          1.32249        5.97876        3.49239
H          3.20525        5.30314        1.72169
H          6.79777        2.95543        1.46501
H          5.26478        3.67601        0.97079
H          0.69121        5.40525        7.98849
H          2.40449        5.06217        8.24092
H          7.95625        5.73193        4.51874
H          7.04352        4.29076        4.94036
H          8.37212        4.18734        3.79986
H          6.29740        6.59248        0.63223
H          7.20347        7.35273        1.92394
H          7.92244        6.04835        1.00438
H          4.04646        8.53300        7.08388
H          3.16407        8.06242        8.52241
H          4.38154        6.99139        7.85565
H          0.23303        7.81912        5.31883
H          0.19313        8.20014        7.03441
H          1.26294        9.07561        5.96432
H          3.44228        2.69474        0.58141
H          2.20653        1.06922       -0.76856
H          2.16382       -1.31033       -0.11700
H          3.36451       -2.04915        1.90967
H          4.61210       -0.42349        3.26867
H          5.91214        1.89522        5.77275
H          7.74869        0.51353        6.65972
H          9.21187       -0.74102        5.11700
H          8.82117       -0.62654        2.68507
H          6.98186        0.74144        1.79380
H          3.48734        2.07657        7.76685
H          3.20166        0.37308        9.52198
H          0.94910       -0.15186       10.38432
H         -1.01694        1.04406        9.49668
H         -0.74079        2.74295        7.74138
H          0.36538        1.84701        4.88931
H         -1.76574        1.69865        3.64052
H         -3.32250        3.61604        3.62861
H         -2.75991        5.66663        4.87425
H         -0.65369        5.81058        6.13179
