134
CSD_code = WUVPOT | q = 0 | S = 0 | Stoichiometry = C54H57BF15FeN2P3Si | MND = 5
Fe         3.06562        7.83574        3.63889
H          5.21172        7.66750        2.21983
H          5.41211        6.71032        3.52079
H          5.95190        8.83070        4.64470
N          5.16853        7.66540        3.23864
N          6.15141        8.60870        3.68143
P          3.08924        7.29239        5.84499
P          2.57026        5.87223        2.46121
P          2.87146       10.12208        3.59126
Si         0.88139        7.86140        4.00651
B          7.65408        8.46926        3.37714
C          1.51530        6.49718        6.34953
C          0.42051        6.87204        5.56469
C          0.89599        6.16884        1.75641
C         -0.84605        6.42228        5.89102
H         -1.68656        6.70074        5.27330
C         -1.03867        5.60205        6.99047
H         -2.02913        5.25370        7.24321
C          0.04806        5.21134        7.75318
H         -0.09357        4.55384        8.59846
C          1.32281        5.65568        7.43837
H          2.15196        5.31242        8.03870
C          0.06541        7.00102        2.51339
C         -1.23293        7.23072        2.09403
H         -1.86802        7.88493        2.67095
C         -1.72014        6.64814        0.93667
H         -2.73655        6.83040        0.62038
C         -0.88891        5.84714        0.17412
H         -1.25135        5.40734       -0.74353
C          0.41430        5.60924        0.57870
H          1.04159        5.00073       -0.05484
C          1.16847       10.67049        4.03675
C          0.22665        9.64378        4.16688
C         -1.08547        9.95481        4.47719
H         -1.80297        9.15924        4.60844
C         -1.48375       11.26993        4.64539
H         -2.51017       11.50221        4.88785
C         -0.55321       12.28505        4.51500
H         -0.85085       13.31431        4.65163
C          0.76673       11.98850        4.21724
H          1.46816       12.80488        4.14015
C          4.39028        6.13092        6.54452
H          4.06082        5.85995        7.55189
C          4.46895        4.85959        5.71178
H          4.67563        5.10012        4.66973
H          3.53166        4.31067        5.76592
H          5.26581        4.21341        6.07683
C          5.75949        6.79444        6.64722
H          6.45281        6.12764        7.15907
H          5.72716        7.72944        7.19909
H          6.16554        7.00011        5.66484
C          3.12489        8.61323        7.19406
H          3.99630        9.23222        6.95575
C          3.25374        8.11178        8.63202
H          3.21921        8.97280        9.29829
H          4.18800        7.59382        8.82283
H          2.42108        7.46225        8.89137
C          1.87385        9.47694        7.10075
H          0.98424        8.89741        7.34003
H          1.75802        9.88262        6.10150
H          1.93585       10.30415        7.80614
C          2.33276        4.07873        3.02239
H          3.26289        3.81107        3.53421
C          2.07706        3.02845        1.94327
H          1.89587        2.07453        2.43720
H          2.92638        2.88993        1.28061
H          1.19069        3.26712        1.36102
C          1.19359        4.03152        4.03386
H          0.24580        4.27808        3.55861
H          1.36225        4.73725        4.83970
H          1.10976        3.03358        4.46102
C          3.58328        5.53208        0.89810
H          3.01731        4.76104        0.36794
C          4.96934        4.96160        1.20088
H          5.33644        4.41667        0.33224
H          4.95537        4.27243        2.04208
H          5.69239        5.74314        1.41343
C          3.69056        6.72895       -0.04101
H          4.14750        7.59354        0.43679
H          2.71095        7.01973       -0.41452
H          4.30625        6.45975       -0.89854
C          2.77563       10.39661        1.73562
H          3.79822       10.25041        1.37283
C          1.89287        9.30051        1.15796
H          0.85763        9.42522        1.47162
H          2.24465        8.32351        1.50799
H          1.92043        9.31359        0.06938
C          2.26887       11.76167        1.28284
H          2.25158       11.78975        0.19402
H          2.90528       12.57321        1.62281
H          1.25588       11.93750        1.63996
C          3.94716       11.59455        4.04176
H          3.36029       12.49205        3.82076
C          4.28455       11.59968        5.52731
H          4.90624       10.74398        5.77510
H          3.38389       11.57728        6.13631
H          4.84125       12.50085        5.78001
C          8.42374        7.34402        4.33904
C          8.06664        5.99920        4.29087
C          8.60063        5.00736        5.09927
C          9.58376        5.33795        6.02009
C         10.01617        6.65499        6.07311
C          9.44782        7.61756        5.24199
C          8.24610        9.97282        3.68385
C          7.99208       10.58980        4.90693
C          8.39311       11.88002        5.21870
C          9.09874       12.62384        4.28161
C          9.39222       12.04291        3.05718
C          8.96712       10.74513        2.78350
C          7.88343        8.05552        1.80299
C          8.93243        7.24919        1.36705
C          9.11576        6.87881        0.03839
C          8.23469        7.32515       -0.93684
C          7.20007        8.16472       -0.55392
C          7.05719        8.51642        0.78248
C          5.22566       11.62951        3.20905
H          5.90995       12.36395        3.63102
H          5.03509       11.91587        2.17912
H          5.71399       10.65776        3.21715
F          8.15693        3.74419        4.99732
F         10.10473        4.40807        6.82827
F         10.98468        7.00094        6.92934
F          9.97607        8.84692        5.34524
F          7.33645        9.91592        5.87451
F          8.08827       12.41487        6.41041
F          9.48191       13.87624        4.55505
F         10.07531       12.73502        2.13650
F          9.29734       10.26004        1.57306
F          9.85145        6.79035        2.23195
F         10.13711        6.08453       -0.30152
F          8.37908        6.95817       -2.21465
F          6.32727        8.62645       -1.46467
F          6.03723        9.35745        1.05895
F          7.14033        5.58951        3.39104
