50
CSD_code = XALROR | q = 0 | S = 0 | Stoichiometry = C18H28F2HfSi | MND = 12
Hf         2.52663       17.36266        2.10948
F          2.77738       18.95876        3.08770
F          0.75169       17.71788        1.58371
Si         2.83181       20.37441        0.20177
C          2.90665       16.55529        4.38119
C          1.54459       16.41061        3.99126
C          1.48262       15.39684        2.98361
C          2.80450       14.91446        2.77253
C          3.68113       15.63960        3.62453
C          3.40021       17.39757        5.52397
H          3.24383       16.87592        6.47090
H          2.86705       18.34553        5.56949
H          4.46381       17.60429        5.42428
C          0.39563       17.19445        4.56540
H          0.23780       16.93618        5.61430
H         -0.52270       16.98917        4.01977
H          0.60027       18.26702        4.50496
C          0.21837       14.82050        2.40324
H         -0.24524       14.13046        3.11152
H          0.42245       14.27123        1.48597
H         -0.50151       15.60548        2.17498
C          3.16677       13.67174        2.00538
H          3.17438       12.80992        2.67646
H          4.15415       13.74619        1.55303
H          2.44529       13.46738        1.21688
C          5.13178       15.33547        3.88529
H          5.24988       14.90443        4.88104
H          5.74759       16.23505        3.84000
H          5.51736       14.61613        3.16720
C          2.72499       17.46982       -0.32269
H          1.88017       17.54218       -0.99370
C          3.42720       16.29264       -0.00775
H          3.24800       15.31853       -0.43906
C          4.53814       16.64926        0.78986
H          5.35589       15.99632        1.05792
C          4.50400       18.04480        0.98764
H          5.27652       18.63888        1.45835
C          3.37992       18.57296        0.28518
C          2.79911       20.89114       -1.63785
H          2.09047       20.30185       -2.20971
H          3.77268       20.77481       -2.10157
H          2.51205       21.93227       -1.73249
C          1.09125       20.60783        0.94739
H          0.34401       20.05591        0.38444
H          0.79575       21.65304        0.95201
H          1.06004       20.24439        1.97178
C          4.10779       21.43956        1.14328
H          3.83847       22.48949        1.09746
H          5.10363       21.33978        0.72260
H          4.15173       21.15504        2.18965
