38
CSD_code = XATVET | q = 0 | S = 0 | Stoichiometry = C12H20FeO3Si2 | MND = 8
Fe        -1.86243        7.53655        9.97531
Si         0.27128        7.95152       10.23281
Si        -2.01560        9.23635        8.60447
O          1.07502        8.41718        8.65840
O         -0.58194        9.34012        7.47707
O         -1.01605        6.08209        7.63301
C          0.92305        9.40758       11.30583
C          1.45911        6.48534       10.59499
C         -3.32731        9.16177        7.20263
C         -2.01052       11.06549        9.19731
C          0.56456        8.85379        7.60254
C          1.40933        8.78223        6.35755
C         -1.39850        6.61359        8.59260
C         -2.67058        8.35537       11.77701
C         -2.05185        7.12001       12.09070
C         -2.71225        6.10526       11.36829
C         -3.75920        6.70540       10.62617
C         -3.74409        8.09010       10.89172
H          0.72221        9.20485       12.35135
H          1.99411        9.54422       11.19207
H          0.43818       10.34459       11.05661
H          1.29626        6.11770       11.60177
H          1.27290        5.66206        9.91401
H          2.50394        6.76644       10.50504
H         -3.17086        9.92594        6.44745
H         -3.30979        8.19519        6.71108
H         -4.31980        9.29768        7.61714
H         -1.13070       11.29917        9.78615
H         -2.04576       11.75831        8.36207
H         -2.87896       11.24943        9.81892
H          2.46105        8.70986        6.61585
H          1.11521        7.88295        5.81742
H          1.21944        9.64106        5.72067
H         -2.47078        9.29766       12.25804
H         -1.27439        6.97327       12.82180
H         -2.52712        5.04724       11.45170
H         -4.50384        6.18012       10.05152
H         -4.47382        8.80712       10.55430
