55
CSD_code = XEFMEA | q = 0 | S = 0 | Stoichiometry = C24H24FeO4Si2 | MND = 7
Fe         6.18532        6.05183        6.38295
Si         9.87354        6.48604        6.94952
Si         5.01162        4.73001        9.69853
C          8.06519        6.51064        7.50313
C          7.50497        5.50223        8.45142
C          6.06362        5.85817        8.60428
C          5.95894        7.22383        8.23949
C          5.16685        8.42525        8.47750
C          3.96036        8.71411        9.06283
H          3.33373        7.94075        9.47561
C          3.53801       10.05608        9.11574
H          2.58647       10.27161        9.58030
C          4.28160       11.08982        8.60356
H          3.92054       12.10599        8.66692
C          5.53105       10.83272        7.99456
C          5.93652        9.49679        7.95361
C          6.42618       11.77624        7.44109
H          6.16555       12.82455        7.45071
C          7.62029       11.36420        6.90359
H          8.29394       12.10081        6.48979
C          8.01117       10.01250        6.86454
H          8.96066        9.74427        6.42732
C          7.16514        9.06749        7.38813
C          7.18832        7.62150        7.56761
C          9.92338        7.10182        5.14206
H          9.34920        8.01081        4.99483
H          9.51416        6.35254        4.46996
H         10.94220        7.30142        4.82657
C         10.82780        7.64378        8.13356
H         11.84828        7.78976        7.79265
H         10.87196        7.21611        9.13088
H         10.36253        8.62161        8.21795
C         10.56547        4.71802        7.01473
H         10.13551        4.09715        6.23390
H         10.33424        4.24983        7.96546
H         11.64383        4.71032        6.88727
C          5.68720        4.90158       11.47358
H          5.15590        4.24930       12.16002
H          5.59702        5.91917       11.84455
H          6.73776        4.63005       11.49981
C          3.16106        5.19374        9.62849
H          2.87195        5.58085        8.65642
H          2.90039        5.93132       10.38023
H          2.55383        4.31575        9.82155
C          5.21956        2.96967        9.00608
H          4.73332        2.22997        9.63464
H          6.27166        2.71246        8.94307
H          4.79617        2.88700        8.00785
C          6.70129        4.36996        5.99895
C          4.47030        5.96425        6.00615
C          6.43748        6.85193        4.83130
O          8.08390        4.57175        8.97855
O          7.01720        3.32374        5.66952
O          3.35832        5.89309        5.73798
O          6.55274        7.34005        3.80141
