135
CSD_code = XELXEU | q = 0 | S = 0 | Stoichiometry = C45H82N3O2Si2Y | MND = 6
Y          6.11462        9.67203       18.89621
Si         6.50499       12.19400       21.88869
Si         2.35246        9.45056       19.04507
O          5.91981        8.17828       21.34328
N          7.79970        9.49858       16.89403
N          9.58932        7.92933       16.68671
C          7.80646       10.02859       15.60938
C          9.79160        7.33653       20.00222
C          4.71155        7.57530       21.82445
H          4.49425        6.69283       21.21224
H          3.89274        8.29016       21.70745
C          8.02584       11.42062       15.46628
C          7.90412        5.83333       19.64585
C          8.58663        7.03227       19.33103
C          6.58551        5.53021       18.96733
H          6.04196        6.48374       18.89314
C          6.80337        5.00794       17.54317
H          7.45408        4.13437       17.55187
H          7.25082        5.77605       16.92095
H          5.85028        4.72438       17.10042
C          8.47138        8.43854       17.33475
C         10.08903        6.58862       16.92694
H          9.37769        6.06342       17.55784
H         11.03910        6.63151       17.47548
C          7.48436        9.26371       14.46381
C          7.11452        7.80034       14.58867
H          7.69335        7.37042       15.40709
C         10.47950        8.66648       19.78228
H         10.24430        9.01392       18.77438
C          5.71670        4.53256       19.73450
H          6.10745        3.52119       19.63897
H          4.70689        4.53744       19.32713
H          5.66280        4.78431       20.79095
C          6.95606        7.98999       22.31484
H          7.11002        8.93569       22.84976
H          7.87113        7.71067       21.79134
C          3.95223        8.62472       18.48532
H          3.87083        8.46773       17.40297
H          3.97779        7.61869       18.92018
C          7.43247        9.88704       13.22714
H          7.17805        9.31465       12.34906
C          8.45932        4.95518       20.56076
H          7.96493        4.02230       20.78328
C          6.70552       11.75057       20.06313
H          7.76128       11.94047       19.82481
H          6.14900       12.52107       19.51176
C         10.36009        8.71623       15.74233
H          9.94505        9.71936       15.70796
H         10.26450        8.29131       14.73484
C          7.99032       11.99154       14.20609
H          8.19180       13.04432       14.08351
C          6.46279        6.90611       23.26664
H          6.92026        6.98177       24.24983
H          6.67335        5.91987       22.85200
C          2.63880       10.91039       20.26039
H          3.64117       11.32455       20.15681
H          2.52045       10.59283       21.29160
H          1.92489       11.71224       20.09347
C          6.06548       14.05246       22.10264
H          6.84421       14.69242       21.69905
H          5.93105       14.31994       23.14635
H          5.14310       14.29522       21.58281
C         11.84095        8.83291       16.10610
H         11.95982        9.23285       17.10895
H         12.31737        9.51432       15.40504
H         12.35337        7.87658       16.05022
C         10.29450        6.43889       20.93074
H         11.20843        6.66793       21.45651
C          9.65084        5.24625       21.19981
H         10.07054        4.55033       21.91132
C          8.28411       12.25693       16.70041
H          7.57506       11.90395       17.46234
C          9.91216        9.69123       20.76869
H          8.83458        9.79702       20.62339
H         10.38013       10.66225       20.61904
H         10.09972        9.37146       21.79248
C          4.96148        7.17881       23.27773
H          4.36887        6.31700       23.57559
H          4.73603        8.01200       23.94404
C         12.00171        8.59921       19.91397
H         12.30231        8.46624       20.95047
H         12.44388        9.52998       19.56178
H         12.40932        7.77830       19.32751
C          7.70419       11.23394       13.08537
H          7.68105       11.69379       12.10831
C         10.28081        5.76787       15.65059
H          9.36531        5.74174       15.06650
H         10.53951        4.74922       15.93043
H         11.07922        6.16071       15.02736
C          8.05245       13.75405       16.49651
H          8.06528       14.25697       17.46211
H          7.09063       13.94365       16.02588
H          8.83591       14.19383       15.88213
C          1.32860       10.15467       17.58245
H          1.82531       11.00486       17.12887
H          0.34847       10.48726       17.91080
H          1.17722        9.40842       16.80871
C          8.12384       11.93534       22.88430
H          8.39248       10.88729       22.96156
H          8.02403       12.32315       23.89380
H          8.95807       12.45067       22.41972
C          9.70102       12.03620       17.24224
H          9.82294       11.01164       17.58161
H          9.88513       12.69768       18.08724
H         10.44227       12.24678       16.47232
C          1.16954        8.22967       19.94089
H          0.83546        7.44375       19.27106
H          0.28575        8.73432       20.31862
H          1.65714        7.75087       20.78472
C          5.12681       11.23604       22.81575
H          4.19107       11.78504       22.80308
H          5.39206       11.07452       23.85685
H          4.94719       10.26975       22.35891
C          5.63405        7.67758       14.96162
H          5.00956        8.15819       14.20993
H          5.45900        8.15390       15.92694
H          5.34745        6.63008       15.03358
C          7.40724        6.97862       13.33270
H          6.70794        7.21469       12.53401
H          7.30306        5.91770       13.55632
H          8.41894        7.15891       12.97475
O          4.82067       11.48602       17.01620
C          4.52186       11.13778       15.66271
H          3.60062       10.54070       15.63740
H          5.35273       10.54992       15.27439
C          4.32182       12.80363       17.27627
H          5.17096       13.43990       17.55014
H          3.62532       12.76042       18.11867
C          4.33172       12.45541       14.92169
H          3.73157       12.34249       14.02236
H          5.30273       12.87039       14.65118
C          3.65451       13.30551       15.99329
H          2.58340       13.10138       16.01358
H          3.80167       14.37329       15.84825
N          7.97468        7.92188       18.45450
