108
CSD_code = XEWQOH | q = 0 | S = 0 | Stoichiometry = C56H46IrOP3Si | MND = 5
Ir         3.72394        3.56633        5.59633
P          4.96705        1.98252        4.23464
P          4.46266        5.60949        4.37191
P          5.28153        3.72335        7.36804
Si         2.26228        3.38979        3.73403
O          1.32596        3.60221        7.43710
C          2.25973        3.56740        6.74113
C          0.38643        3.79555        3.62343
C          2.52282        1.64516        2.97516
C          1.60367        0.95713        2.19869
C          1.91618       -0.27346        1.64690
C          3.16806       -0.82932        1.85575
C          4.09975       -0.15950        2.62827
C          3.77184        1.06653        3.19272
C          6.22400        2.36738        2.96891
C          5.84665        2.61787        1.65172
C          6.78901        3.01339        0.72054
C          8.11741        3.15837        1.08831
C          8.49678        2.92785        2.40118
C          7.55368        2.55433        3.33983
C          5.69864        0.56066        5.12332
C          6.83759       -0.14482        4.75424
C          7.25498       -1.22652        5.51060
C          6.53837       -1.62460        6.62632
C          5.38511       -0.94380        6.98260
C          4.97241        0.14002        6.23350
C          3.02732        4.46223        2.32056
C          2.64545        4.29746        0.99606
C          3.21691        5.04790       -0.01555
C          4.17733        5.99794        0.29117
C          4.56957        6.18370        1.60345
C          4.01316        5.40530        2.61257
C          3.42636        7.09308        4.67314
C          2.21373        6.94180        5.33355
C          1.37666        8.02577        5.52522
C          1.74116        9.27452        5.05149
C          2.94133        9.42982        4.37691
C          3.77794        8.34692        4.18228
C          6.12036        6.36147        4.31993
C          7.09139        5.87696        3.44617
C          8.39280        6.33580        3.52352
C          8.74864        7.26586        4.48753
C          7.79459        7.73396        5.37805
C          6.49112        7.28146        5.30151
C          7.01188        3.20302        7.11435
C          7.46193        1.95799        7.54422
C          8.76199        1.56164        7.28920
C          9.62907        2.40235        6.61014
C          9.18247        3.63621        6.16403
C          7.87675        4.02640        6.39839
C          4.95739        2.88272        8.96862
C          3.88090        2.01809        9.10909
C          3.64825        1.37653       10.31332
C          4.48949        1.59650       11.38956
C          5.56416        2.46243       11.25841
C          5.79831        3.10231       10.05687
C          5.48170        5.43014        8.01057
C          6.67331        5.97219        8.48032
C          6.70633        7.27333        8.95063
C          5.55761        8.04641        8.96194
C          4.36351        7.50848        8.51015
C          4.32841        6.20891        8.04170
H         -0.19080        3.11501        4.23759
H          0.02400        3.72650        2.60388
H          0.19456        4.80376        3.97187
H          0.62710        1.38695        2.03138
H          1.18559       -0.80158        1.05029
H          3.41664       -1.78716        1.42117
H          5.07641       -0.59443        2.79461
H          4.81316        2.50083        1.35748
H          6.48429        3.20800       -0.29764
H          8.85277        3.45693        0.35530
H          9.52920        3.04595        2.69850
H          7.84502        2.40156        4.36862
H          7.40277        0.14093        3.87845
H          8.14629       -1.76537        5.22149
H          6.87432       -2.46764        7.21245
H          4.81347       -1.25501        7.84528
H          4.07312        0.68479        6.49578
H          1.89543        3.55732        0.75436
H          2.91390        4.89706       -1.04228
H          4.62052        6.59638       -0.49239
H          5.31643        6.93093        1.83366
H          1.93248        5.96172        5.69689
H          0.43899        7.89510        6.04572
H          1.09172       10.12445        5.20234
H          3.22570       10.40075        3.99693
H          4.71045        8.48237        3.65299
H          6.81819        5.14489        2.70027
H          9.13185        5.96201        2.82940
H          9.76664        7.62242        4.54840
H          8.06748        8.45139        6.13870
H          5.74968        7.64339        6.00098
H          6.79478        1.29938        8.08171
H          9.09935        0.59204        7.62538
H         10.64710        2.09375        6.42256
H          9.84520        4.29505        5.62158
H          7.52414        4.97732        6.02794
H          3.21984        1.85200        8.27021
H          2.80698        0.70606       10.41016
H          4.30964        1.09749       12.33044
H          6.22156        2.63894       12.09753
H          6.63913        3.77453        9.96164
H          7.58507        5.39158        8.47126
H          7.63880        7.68603        9.30874
H          5.59345        9.06440        9.32142
H          3.46161        8.10304        8.51404
H          3.39911        5.78575        7.68478
