44
CSD_code = XITJAN | q = 0 | S = 0 | Stoichiometry = C13H24BNO2Si2W | MND = 8
W          1.15350        9.64331        6.76979
H          0.06605       10.83122        7.06919
B          0.79444       10.21970        4.84096
N          0.58784       10.60439        3.55209
Si         0.28565       12.34813        3.30294
Si         0.78167        9.40511        2.25580
C          1.13185       13.27564        4.72604
H          1.02053       14.35148        4.63682
H          2.19531       13.05413        4.75438
H          0.71893       12.96755        5.68312
C         -1.60740       12.57025        3.32632
H         -1.87782       13.61586        3.22240
H         -2.01862       12.21260        4.26550
H         -2.09290       12.02415        2.52376
C          1.04132       12.89757        1.64358
H          0.84148       13.95250        1.48588
H          0.63279       12.35915        0.79578
H          2.11828       12.76569        1.63623
C          2.43507        9.67797        1.35139
H          2.74516        8.77416        0.83525
H          3.21537        9.93575        2.06194
H          2.38033       10.47106        0.61362
C          0.79567        7.70119        3.10408
H          0.78661        6.88980        2.38276
H         -0.06371        7.57722        3.75650
H          1.69077        7.59376        3.71005
C         -0.73579        9.53874        1.11234
H         -0.66852        8.80938        0.31195
H         -0.81822       10.51873        0.65591
H         -1.65784        9.34930        1.65304
C         -0.22910        8.40048        8.21194
H         -1.17563        8.68008        8.66076
C         -0.07372        7.65606        7.01535
H         -0.88122        7.25304        6.41617
C          1.29922        7.32472        6.89554
H          1.72199        6.64631        6.16420
C          1.98303        7.85391        8.01540
H          3.01949        7.67219        8.26793
C          1.04055        8.52094        8.82842
H          1.22674        8.92728        9.81484
C          2.51391        9.93244        5.38188
O          3.43400       10.07951        4.65757
O          3.29737       11.84302        7.34698
C          2.44358       11.08045        7.15573
