87
CSD_code = XIXWAC | q = 0 | S = 0 | Stoichiometry = C24H52Cl3HfN3Si4 | MND = 7
Hf         4.22699       -1.73493       27.17960
Cl         3.65707       -3.01648       25.25718
Cl         5.08360       -0.73490       29.17244
Cl         2.02861       -1.77791       28.01288
Si         2.79000        1.77155       26.19799
Si         2.59758        2.44536       28.49466
Si         0.72342        0.80571       25.43854
Si         3.49062        3.57505       24.78350
N          4.22249       -3.92946       28.27733
N          6.51199       -2.53038       26.91539
N          5.01274       -0.06000       25.85712
C          3.10277       -4.79843       27.88622
H          3.09169       -4.93475       26.80600
H          2.16437       -4.33071       28.17968
H          3.18272       -5.77839       28.37234
C          4.15085       -3.76096       29.73450
H          4.17306       -4.73422       30.24190
H          3.21878       -3.25303       29.98449
H          4.97339       -3.15143       30.10379
C          5.47946       -4.58525       27.89225
H          5.70294       -5.42111       28.57422
H          5.35243       -4.99776       26.88738
C          6.65722       -3.61354       27.90140
H          7.58398       -4.17748       27.71050
H          6.74300       -3.15173       28.88923
C          7.53608       -1.52219       27.21542
H          8.53398       -1.97836       27.23780
H          7.33383       -1.06182       28.18085
H          7.52901       -0.75205       26.44821
C          6.78504       -3.02885       25.56268
H          7.79082       -3.46461       25.50304
H          6.72249       -2.20028       24.85837
H          6.05332       -3.77445       25.26165
C          3.85780        0.20670       26.33928
C          5.87691        0.67850       25.03480
C          5.86435        0.43296       23.65176
C          6.83826        1.01436       22.85720
H          6.82774        0.82976       21.79260
C          7.81863        1.82306       23.40677
H          8.57511        2.26392       22.77552
C          7.81738        2.06820       24.76654
H          8.57286        2.70694       25.20152
C          6.85531        1.50911       25.59766
C          6.87001        1.82792       27.06332
H          6.21677        1.16622       27.62577
H          6.52915        2.84958       27.21938
H          7.88039        1.75102       27.46217
C          4.79026       -0.42032       23.05118
H          3.83503        0.10344       23.08744
H          4.66786       -1.35164       23.60243
H          5.01886       -0.65257       22.01401
C          4.21581        3.16874       29.22867
H          4.67370        3.89498       28.56367
H          4.94109        2.38428       29.41869
H          4.02663        3.67084       30.17413
C          1.96764        1.15880       29.75451
H          2.68172        0.34989       29.86858
H          1.02884        0.71372       29.44379
H          1.81771        1.60146       30.73713
C          1.32649        3.87900       28.48615
H          0.96529        4.09262       29.48713
H          0.46322        3.65012       27.87023
H          1.76676        4.79298       28.10306
C          0.94351       -0.82093       24.46111
H         -0.01101       -1.25876       24.17965
H          1.46656       -1.55429       25.06741
H          1.51805       -0.67983       23.55003
C         -0.51665        0.47998       26.85675
H         -0.67546        1.36865       27.46043
H         -0.15778       -0.30763       27.50988
H         -1.48525        0.17042       26.47176
C         -0.17133        2.02559       24.26127
H          0.46325        2.36126       23.44829
H         -0.51029        2.90448       24.79958
H         -1.04897        1.56449       23.81852
C          2.13561        4.92156       24.90130
H          2.09192        5.34986       25.89662
H          1.15232        4.52821       24.67368
H          2.32803        5.73572       24.20806
C          3.63790        3.11765       22.92696
H          3.63031        4.00430       22.29826
H          2.81273        2.48862       22.60661
H          4.55984        2.58315       22.72278
C          5.10776        4.50847       25.22068
H          5.98940        3.92255       24.98467
H          5.14376        4.76025       26.27645
H          5.17988        5.44134       24.66673
