57
CSD_code = XIYNIC | q = 0 | S = 0 | Stoichiometry = C20H26NO6PSi2W | MND = 6
W          6.90660        3.65544       -0.03535
P          4.45091        3.73775       -0.04148
Si         2.15947        2.37829        1.55178
Si         2.74336        1.83423       -1.70457
N          3.59575        4.93367       -1.01209
O         10.03144        3.58698        0.02434
O          6.98745        4.66311       -3.01168
O          6.83654        0.62572       -0.86028
O          6.94999        2.58609        2.91410
O          6.92384        6.68948        0.78030
O          4.82598        5.56576        2.56154
C          8.88704        3.61010       -0.00427
C          6.93948        4.28738       -1.93588
C          6.86080        1.73658       -0.58562
C          6.90107        2.99959        1.84654
C          6.91661        5.57876        0.50767
C          3.36480        2.26982        0.06704
H          4.08183        1.48346        0.33168
C          3.25810        2.59972        3.09519
H          2.67919        2.86698        3.97454
H          3.99288        3.38185        2.92493
H          3.80281        1.68884        3.32679
C          0.91180        3.82099        1.41724
H         -0.09796        3.47212        1.60977
H          0.91843        4.27538        0.43299
H          1.12832        4.60234        2.13969
C          1.18504        0.74612        1.69157
H          1.83886       -0.11873        1.65730
H          0.45963        0.64544        0.89123
H          0.64270        0.70974        2.63055
C          4.11333        2.26966       -2.95257
H          3.84604        1.97829       -3.96415
H          5.04893        1.77373       -2.70616
H          4.29630        3.34039       -2.95466
C          2.41076       -0.04163       -1.76835
H          1.62506       -0.33849       -1.08341
H          3.29902       -0.61352       -1.52045
H          2.10279       -0.33353       -2.76637
C          1.15686        2.80738       -2.11079
H          0.80452        2.55965       -3.10690
H          1.34431        3.87616       -2.08554
H          0.35547        2.58609       -1.41321
C          3.54443        5.22912        0.23530
C          3.13707        6.27783        1.09932
C          2.10915        7.15305        0.74770
H          1.61436        7.01225       -0.20072
C          1.73572        8.16611        1.60584
H          0.93710        8.83964        1.33752
C          2.40005        8.31763        2.81358
H          2.11494        9.11133        3.48774
C          3.43531        7.47120        3.17285
H          3.93648        7.62576        4.11480
C          3.81849        6.43819        2.32480
C          5.57787        5.71845        3.74784
H          6.07677        6.69100        3.77481
H          6.32837        4.93155        3.72984
H          4.94863        5.59851        4.63475
