50
CSD_code = XOJQAO | q = 0 | S = 0 | Stoichiometry = C18H27Cl2NSiTi | MND = 8
Ti         4.26167       -4.62487       10.47593
Cl         2.30702       -4.64236       11.45263
Cl         4.00710       -6.57149        9.51660
Si         2.86567       -3.88646        7.70800
N          3.97383       -3.54198        9.02864
C          5.05735       -4.33229       12.67670
C          5.64341       -3.35850       11.83352
C          6.45667       -4.03009       10.88368
C          6.36220       -5.42044       11.12730
C          5.48875       -5.60005       12.22698
C          4.26117       -4.05500       13.91629
C          7.16449       -6.48973       10.44722
C          4.69049       -2.33985        8.98488
C          4.21209       -1.21692        9.68298
C          4.92487       -0.02918        9.62954
C          6.09417        0.06681        8.89530
C          6.56299       -1.03751        8.20769
C          5.87536       -2.24220        8.23751
C          2.94240       -1.32308       10.47438
C          6.39681       -3.43370        7.48652
C          3.57101       -5.13287        6.42697
C          1.22312       -4.58218        8.39356
C          2.53116       -2.25085        6.77023
H          5.61678       -2.28643       11.99026
H          7.15996       -3.55246       10.21427
H          5.25857       -6.54839       12.69874
H          4.93018       -4.01135       14.77943
H          3.74106       -3.10028       13.83982
H          3.52541       -4.83798       14.09515
H          6.58214       -7.40393       10.33293
H          7.49337       -6.15895        9.46189
H          8.05048       -6.72281       11.04290
H          4.55597        0.83334       10.16623
H          6.63756        0.99877        8.85977
H          7.47637       -0.96727        7.63405
H          2.70704       -0.37411       10.95084
H          2.11470       -1.60684        9.82344
H          3.02867       -2.09939       11.24428
H          6.03776       -3.41299        6.45821
H          7.48528       -3.42243        7.45983
H          6.04820       -4.36201        7.94962
H          4.18613       -5.89858        6.89059
H          2.75016       -5.63664        5.92670
H          4.16163       -4.64090        5.66059
H          0.77708       -3.93945        9.14805
H          0.50461       -4.69638        7.58818
H          1.37426       -5.56217        8.84087
H          3.45916       -1.75968        6.49567
H          1.97679       -2.44552        5.85919
H          1.95450       -1.54638        7.35995
