42
CSD_code = XOMXIH | q = 0 | S = 0 | Stoichiometry = C16H22Cl2SiW | MND = 12
W          2.78207        2.20315        5.41631
Cl         2.14152        3.48308        7.37894
Cl         3.67214        4.37465        4.83581
Si         2.07507       -0.93622        5.11214
C          1.30495        0.69521        4.53228
C          0.64258        1.62184        5.39590
H         -0.00047        1.37252        6.22924
C          0.71333        2.92423        4.76942
C          1.37428        2.77209        3.50522
C          1.80299        1.44033        3.40697
H          2.27113        1.00435        2.53419
C         -0.06435        4.14292        5.17445
H         -0.97743        4.22531        4.58111
H          0.53427        5.04183        5.02004
H         -0.33036        4.08690        6.22815
C          1.51408        3.83695        2.46707
H          0.53450        4.24590        2.21976
H          1.97185        3.43548        1.56566
H          2.13795        4.65225        2.83802
C          3.57705        0.07192        5.67738
C          3.64214        0.80269        6.90420
H          3.23483        0.49186        7.85689
C          4.61748        1.85735        6.72851
C          5.17592        1.72943        5.41292
C          4.48386        0.70226        4.75543
H          4.72666        0.32474        3.77079
C          5.20858        2.70685        7.81630
H          6.15738        2.28537        8.15485
H          4.52544        2.76652        8.66121
H          5.38773        3.71867        7.44945
C          6.33021        2.51472        4.88164
H          7.18523        2.41816        5.55103
H          6.07210        3.57313        4.81162
H          6.61010        2.16183        3.89151
C          1.12673       -1.72876        6.55186
H          1.68960       -2.55430        6.97374
H          0.17338       -2.11956        6.21296
H          0.93246       -1.01564        7.34612
C          2.45526       -2.14397        3.69505
H          2.99637       -1.67568        2.87977
H          1.53560       -2.55223        3.29087
H          3.05275       -2.97374        4.05591
