150
CSD_code = XONZIJ | q = 0 | S = 0 | Stoichiometry = C62H80NO4ScSi2 | MND = 5
Sc         0.66974        1.87115        5.91690
Si         0.47357       -0.82244        7.84498
Si         0.92739       -1.24824        4.94946
O          0.19975        2.98055        7.29377
O         -1.43475        2.16782        5.13636
O          1.19493        2.71757        4.36019
O          2.78453        2.15391        6.69209
N          0.56892       -0.18974        6.25048
C         -0.17858        3.66360        8.35142
C          0.74760        4.03211        9.34267
C          0.34538        4.80579       10.41619
C         -0.97409        5.21226       10.57336
C         -1.89886        4.77465        9.62684
C         -1.53079        4.00613        8.54198
C         -2.52028        3.48075        7.53032
C         -2.30839        4.17658        6.21117
C         -2.59709        5.53109        6.13294
C         -2.37649        6.27737        4.98193
C         -1.84729        5.61507        3.88584
C         -1.53783        4.26072        3.92039
C         -1.76668        3.53758        5.09259
C         -0.87071        3.65644        2.70975
C          0.53544        4.20101        2.62625
C          0.87444        5.21207        1.75031
C          2.16162        5.73835        1.68337
C          3.11603        5.19076        2.53114
C          2.80962        4.17827        3.42199
C          1.49831        3.67524        3.51072
C          3.83641        3.60947        4.36999
C          3.61774        4.23050        5.72605
C          3.88662        5.58373        5.87300
C          3.63387        6.27355        7.05127
C          3.09440        5.55425        8.10645
C          2.81576        4.19659        8.00732
C          3.07543        3.53059        6.80648
C          2.16245        3.52391        9.18855
C         -1.44275        6.08042       11.73212
C         -2.46196        5.29774       12.57183
C         -0.29532        6.50630       12.65233
C         -2.09844        7.35201       11.17405
C         -2.68485        7.76616        4.98031
C         -4.16833        7.97973        5.31081
C         -2.39454        8.42601        3.62956
C         -1.80949        8.44361        6.04395
C          2.45959        6.86841        0.70896
C          2.19235        6.38729       -0.72404
C          3.91204        7.34665        0.78666
C          1.54926        8.06243        1.03260
C          3.92152        7.76496        7.12174
C          3.60273        8.36192        8.49487
C          5.40690        8.01145        6.82404
C          3.05335        8.47663        6.07449
C          3.83702        1.32780        7.23469
C          4.97585        1.18756        6.26191
C          4.91345        0.22084        5.26441
C          5.92518        0.12309        4.32609
C          7.00601        0.98855        4.37742
C          7.07428        1.95096        5.37024
C          6.06248        2.05190        6.30945
C         -2.43917        1.32910        4.52975
C         -3.46595        0.89914        5.54227
C         -3.17300       -0.15223        6.40364
C         -4.08729       -0.53290        7.36990
C         -5.29604        0.13471        7.48434
C         -5.58895        1.18590        6.63173
C         -4.67711        1.56866        5.66326
C         -0.60279        0.23667        9.00336
C         -0.17963       -2.60516        7.97321
C         -0.49103       -2.41124        4.40760
C          1.39286       -0.21883        3.41449
H          1.83492       -0.89682        8.47395
H          2.08626       -2.13571        5.24226
H          1.09089        5.07718       11.14770
H         -2.94436        5.02613        9.74086
H         -2.35839        2.40385        7.41865
H         -3.54104        3.65242        7.88048
H         -2.99253        6.00438        7.01877
H         -1.63764        6.14476        2.97165
H         -1.42689        3.91922        1.80661
H         -0.81295        2.56868        2.79476
H          0.10569        5.59279        1.09206
H          4.13581        5.54328        2.50465
H          4.84540        3.83340        4.01658
H          3.70848        2.52531        4.41881
H          4.29123        6.10349        5.01852
H          2.85725        6.03771        9.03995
H          2.11455        2.43996        9.03783
H          2.73095        3.73619       10.09757
H         -2.80214        5.90047       13.41190
H         -2.00754        4.38824       12.95889
H         -3.32823        5.01758       11.97908
H          0.45461        7.07157       12.10376
H          0.17605        5.64230       13.11456
H         -0.68261        7.14181       13.44669
H         -1.39015        7.89706       10.55317
H         -2.41722        8.00117       11.98742
H         -2.96874        7.11420       10.56881
H         -4.41633        7.58260        6.29076
H         -4.79378        7.48310        4.57191
H         -4.40396        9.04185        5.30417
H         -2.63379        9.48614        3.68499
H         -3.00082        7.98578        2.84123
H         -1.34339        8.33206        3.36798
H         -2.01670        8.05150        7.03564
H         -1.99091        9.51646        6.05280
H         -0.75804        8.27047        5.82448
H          1.15491        6.09197       -0.85302
H          2.82067        5.52943       -0.95362
H          2.41316        7.17987       -1.43657
H          4.14607        7.72224        1.78022
H          4.06756        8.15627        0.07586
H          4.60140        6.54358        0.53714
H          0.50087        7.80202        0.91694
H          1.76753        8.89565        0.36714
H          1.70802        8.38780        2.05895
H          3.82827        9.42652        8.48897
H          4.20269        7.89510        9.27248
H          2.54932        8.24262        8.73598
H          5.62926        9.07479        6.88357
H          5.67479        7.66323        5.83082
H          6.02728        7.48821        7.54856
H          3.22746        9.55027        6.10761
H          2.00068        8.28858        6.27474
H          3.27386        8.12258        5.07139
H          3.37393        0.35483        7.42652
H          4.19352        1.76535        8.17625
H          4.06388       -0.44697        5.22980
H          5.87055       -0.62867        3.55303
H          7.79531        0.91166        3.64439
H          7.91640        2.62585        5.41289
H          6.11266        2.80826        7.07986
H         -1.90504        0.45404        4.14109
H         -2.91870        1.87004        3.70378
H         -2.22039       -0.65621        6.31601
H         -3.85711       -1.35107        8.03656
H         -6.00913       -0.16335        8.23866
H         -6.52964        1.70901        6.72134
H         -4.90355        2.39281        5.00124
H         -0.31254        1.28068        8.97210
H         -0.48711       -0.10099       10.02845
H         -1.65917        0.17928        8.76007
H          0.44239       -3.27747        7.39327
H         -1.19897       -2.70430        7.61386
H         -0.16323       -2.94529        9.00344
H         -0.76110       -3.09118        5.20674
H         -0.18026       -3.01375        3.55948
H         -1.39228       -1.87869        4.11361
H          2.21065        0.46688        3.62903
H          0.55337        0.37287        3.05277
H          1.70976       -0.86123        2.59886
