99
CSD_code = XOWFEV | q = 0 | S = 0 | Stoichiometry = C40H45BF10Si2Zr | MND = 14
Zr         3.37470       -5.45084       19.34597
C          3.45075       -5.31384       16.33637
H          3.39776       -6.37307       16.07923
C          4.55532       -5.01056       17.25513
Si         5.87396       -3.76611       16.68055
C          7.56543       -4.54201       17.15078
H          7.82204       -5.34189       16.46343
H          7.57086       -4.96731       18.15056
H          8.35887       -3.80346       17.10036
C          5.76356       -3.62567       14.78239
H          6.68085       -3.21275       14.37434
H          4.94806       -2.98032       14.47551
H          5.59768       -4.59268       14.31926
C          5.87362       -1.97641       17.37179
H          6.48815       -1.36609       16.71734
H          6.30987       -1.91036       18.36333
H          4.88951       -1.52021       17.39385
C          5.02747       -6.13409       17.90712
C          5.01894       -7.10977       18.71450
Si         5.72935       -8.81618       18.36762
C          5.69722      -10.00300       19.86556
H          4.69644      -10.17485       20.24966
H          6.31632       -9.65629       20.68529
H          6.08660      -10.96815       19.55576
C          7.53941       -8.62089       17.79029
H          7.97392       -9.58447       17.54383
H          8.16305       -8.16747       18.55457
H          7.59769       -7.99559       16.90536
C          4.67802       -9.59905       16.97592
H          5.12911      -10.52028       16.62029
H          4.58946       -8.92973       16.12537
H          3.67513       -9.84103       17.31597
B          2.56503       -4.39044       15.62629
C          1.58363       -4.91421       14.50782
C          0.25951       -4.47855       14.42854
F         -0.20676       -3.63131       15.37453
C         -0.63002       -4.90400       13.45503
F         -1.89424       -4.45645       13.44211
C         -0.20721       -5.81725       12.49491
F         -1.05004       -6.24427       11.54540
C          1.09979       -6.29077       12.54343
F          1.51871       -7.18020       11.63063
C          1.96007       -5.84050       13.53403
F          3.21625       -6.32247       13.53187
C          2.40372       -2.88929       16.03814
C          2.37427       -2.52552       17.37859
F          2.48756       -3.54729       18.34024
C          2.18773       -1.24445       17.85811
F          2.18522       -1.02464       19.18404
C          2.01290       -0.20869       16.94741
F          1.84764        1.05154       17.36667
C          2.01390       -0.51324       15.58164
F          1.84765        0.47509       14.69624
C          2.19802       -1.81732       15.15463
F          2.20153       -2.05580       13.83508
C          4.85848       -5.27930       21.41003
C          3.56026       -4.82029       21.75541
H          2.97133       -5.18103       22.58827
C          3.29554       -3.63692       21.02837
H          2.46657       -2.95963       21.18773
C          4.42336       -3.36329       20.22692
H          4.57800       -2.46110       19.65480
C          5.37999       -4.37547       20.45058
H          6.38923       -4.36633       20.06487
C          0.88454       -5.77412       19.77538
C          1.14156       -6.08644       18.41285
H          0.67510       -5.61866       17.55578
C          1.95777       -7.23405       18.35602
H          2.20859       -7.79003       17.46367
C          2.24356       -7.63275       19.68222
H          2.70387       -8.56889       19.96862
C          1.57532       -6.73895       20.55401
H          1.46058       -6.89595       21.61773
C          5.61980       -6.33621       22.18436
C          5.90881       -5.78871       23.59202
H          6.47366       -4.86210       23.52780
H          6.48801       -6.50944       24.16450
H          4.98483       -5.58584       24.12688
C          4.76799       -7.60562       22.29595
H          3.85234       -7.41189       22.85077
H          5.31675       -8.38321       22.82290
H          4.51655       -7.96385       21.29877
C          6.95050       -6.66529       21.50212
H          6.78902       -6.95111       20.46449
H          7.44076       -7.48695       22.01924
H          7.61702       -5.80688       21.53335
C         -0.26133       -4.89315       20.24725
C         -0.23295       -4.68806       21.76602
H         -1.03809       -4.01772       22.05823
H          0.70757       -4.24923       22.09057
H         -0.38117       -5.63099       22.28651
C         -1.56297       -5.62847       19.88009
H         -1.65728       -5.72209       18.80178
H         -2.42459       -5.08199       20.25629
H         -1.56910       -6.62678       20.31137
C         -0.26294       -3.52390       19.55673
H         -0.23511       -3.62542       18.47393
H          0.58052       -2.92148       19.88640
H         -1.17350       -2.98698       19.81438
