48
CSD_code = XUCRUI | q = 0 | S = 0 | Stoichiometry = C20H22Cl2S2SiZr | MND = 12
Zr         3.96323        2.44057        3.20315
Cl         1.86341        3.18590        3.90048
Cl         4.54884        4.54188        2.37266
Si         5.51512       -0.48578        3.34338
S          3.01316        0.31635        6.11358
C          4.29171        1.23049        5.35394
C          5.41964        1.00141        4.51619
C          6.04595        2.29435        4.37592
C          5.34762        3.26122        5.14659
C          4.26043        2.59068        5.77659
C          3.20975        2.84776        6.70546
C          2.47789        1.74129        6.96286
C          7.31180        2.59637        3.62125
C          5.76092        4.68282        5.39017
C          7.22908       -0.88849        2.61352
S          6.37037        1.82281        0.42488
C          4.86618        1.33379        1.16369
C          4.38747        0.33543        2.05862
C          2.96175        0.55051        2.12570
C          2.58678        1.61147        1.25960
C          3.77731        2.08867        0.64017
C          4.19279        3.03203       -0.34483
C          5.52847        2.99909       -0.54749
C          1.97044       -0.27130        2.90367
C          1.19039        2.04826        0.92716
C          4.85601       -2.07065        4.17172
H          3.01155        3.80691        7.15251
H          1.62821        1.64704        7.60955
H          8.08570        2.94067        4.31010
H          7.14243        3.39139        2.88739
H          7.68196        1.71377        3.10666
H          6.46456        4.73612        6.22484
H          4.89108        5.29176        5.63804
H          6.24221        5.10725        4.50937
H          7.21783       -1.89326        2.20556
H          8.00028       -0.85624        3.37583
H          7.51362       -0.21693        1.81102
H          3.52995        3.69911       -0.86898
H          6.10973        3.60079       -1.21765
H          1.26963       -0.75686        2.22185
H          1.38948        0.36399        3.58056
H          2.47008       -1.04191        3.48431
H          0.78818        1.44489        0.10930
H          1.18604        3.09280        0.61419
H          0.53108        1.94117        1.78815
H          4.44287       -2.75604        3.43927
H          4.09664       -1.87120        4.91979
H          5.67337       -2.58114        4.66927
