60
CSD_code = XUCSET | q = 0 | S = 0 | Stoichiometry = C28H26Cl2S2SiZr | MND = 12
Zr        -0.12213        5.96379        9.80417
Cl         1.84226        4.71772        9.79134
Cl         0.97422        7.78138       10.79142
S          1.17425        4.42254        6.50405
S          0.23262        2.83545       11.89448
Si        -3.28426        6.37507        9.21048
C          0.25350        5.67966        7.29881
C          0.48380        7.01879        7.69293
C         -0.77651        7.52687        8.13808
C         -1.78282        6.50102        8.04018
C         -1.12037        5.35585        7.47648
C         -1.45739        4.14428        6.78076
C         -2.70332        3.62983        6.42472
C         -2.78598        2.47049        5.68149
C         -1.63769        1.79631        5.28176
C         -0.38951        2.32179        5.55660
C         -0.30581        3.50651        6.26636
C          1.78343        7.75805        7.54669
C         -1.01369        8.97742        8.46616
C         -0.63939        4.32994       11.67075
C         -0.67044        5.57227       12.32647
C         -1.69768        6.32922       11.70326
C         -2.32032        5.57135       10.65455
C         -1.62319        4.29559       10.63200
C         -1.67286        2.98193       10.03502
C         -2.56200        2.42827        9.11581
C         -2.41275        1.12328        8.69350
C         -1.38212        0.32906        9.17967
C         -0.52438        0.82231       10.14392
C         -0.68510        2.12548       10.58101
C          0.16891        5.96905       13.50302
C         -2.12315        7.67466       12.21918
C         -4.02744        8.10366        9.56442
C         -4.84946        5.42822        8.65698
H         -3.59503        4.16505        6.70532
H         -3.75541        2.08515        5.40219
H         -1.71960        0.87866        4.71963
H          0.50812        1.84108        5.20024
H          2.61393        7.05088        7.59871
H          1.83092        8.26502        6.57965
H          1.90763        8.50220        8.33495
H         -0.97090        9.17464        9.54065
H         -1.98252        9.29232        8.08434
H         -0.24751        9.58767        7.98990
H         -3.38026        3.02192        8.75004
H         -3.10900        0.71642        7.97653
H         -1.26802       -0.68396        8.82636
H          0.25323        0.20643       10.56808
H          0.58891        6.96641       13.36554
H          0.98506        5.25795       13.62848
H         -0.42713        5.97190       14.41811
H         -3.17870        7.84446       12.03068
H         -1.53898        8.48210       11.76957
H         -1.95781        7.71648       13.29506
H         -3.32727        8.83388        9.94659
H         -4.84133        8.01614       10.27689
H         -4.45453        8.50053        8.64833
H         -5.10687        5.68098        7.63363
H         -4.78323        4.35112        8.73521
H         -5.68118        5.73816        9.28153
