54
CSD_code = XUSWAJ | q = 0 | S = 0 | Stoichiometry = C20H30Cl2SiW | MND = 12
W          4.96968        5.73708        9.15259
Cl         7.11491        6.06335       10.22955
Cl         6.33231        4.17558        7.85838
Si         1.83882        6.14422        8.57008
C          3.44177        7.04086        8.05889
C          4.15697        7.97642        8.90725
C          5.49686        8.03172        8.48114
C          5.67855        7.06553        7.44060
C          4.39008        6.47790        7.13334
C          2.86454        5.09289        9.78364
C          3.43709        5.62586       11.00479
C          4.52509        4.81768       11.37867
C          4.72149        3.82827       10.36007
C          3.65380        3.95693        9.38749
C          3.56210        9.00402        9.82203
H          3.61443        9.98275        9.34038
H          4.11396        9.06684       10.75881
H          2.52179        8.79626       10.03863
C          6.55071        8.99073        8.93481
H          6.15466        9.69914        9.65747
H          6.94161        9.53892        8.07717
H          7.37926        8.45247        9.39862
C          6.90540        6.99998        6.57707
H          7.80266        7.03710        7.19546
H          6.92326        7.84475        5.88461
H          6.92422        6.07461        6.00606
C          4.12400        5.72152        5.86923
H          4.48577        6.29118        5.01237
H          3.06443        5.53838        5.73473
H          4.65694        4.76930        5.88508
C          2.79287        6.60772       11.93644
H          3.49300        7.37817       12.25531
H          2.45506        6.07915       12.83015
H          1.92799        7.07666       11.48276
C          5.29812        4.88102       12.65694
H          6.33968        5.13944       12.45755
H          5.28023        3.90765       13.14726
H          4.88266        5.62574       13.33063
C          5.62366        2.63888       10.52595
H          6.59411        2.95476       10.91009
H          5.78138        2.14132        9.57173
H          5.18418        1.92730       11.22881
C          3.30762        2.87755        8.40963
H          3.22942        1.92005        8.92590
H          4.09359        2.78741        7.65790
H          2.36201        3.07917        7.91960
C          0.40698        7.17473        9.30688
H         -0.25408        6.52088        9.86656
H         -0.17041        7.59556        8.49101
H          0.68261        7.99505        9.95694
C          0.91164        5.19743        7.19724
H          0.50683        5.90712        6.48239
H          0.07105        4.66942        7.63666
H          1.50353        4.47710        6.64816
