66
CSD_code = XUTJUS | q = 0 | S = 0 | Stoichiometry = C23H32NO6PSi2W | MND = 6
W          6.59138        2.56864        2.42334
P          4.37766        2.15523        3.43451
Si         1.95620        0.30936        2.51029
Si         4.26954       -0.68637        4.67464
O          5.60454        5.44986        1.66383
O          5.07457        1.70422       -0.18359
O          9.23552        3.06149        0.82848
O          7.48760       -0.41961        2.74382
O          8.13116        3.47248        5.00906
O          2.51782        3.51631        4.72207
N          3.29367        3.14212        2.60965
C          5.97882        4.42626        2.00631
C          5.63204        2.01389        0.76388
C          8.27372        2.88376        1.42223
C          7.15969        0.67633        2.68937
C          7.54308        3.14065        4.08509
C          2.47593        3.72998        3.40142
C          3.62716        2.70330        5.08572
H          3.23956        1.83369        5.62957
C          3.75479        0.44672        3.19649
H          4.38053        0.10031        2.36445
C          1.84026        1.07637        0.76921
H          0.82768        1.00623        0.38158
H          2.49488        0.56244        0.07089
H          2.12541        2.12267        0.77476
C          1.57340       -1.54830        2.29238
H          1.57425       -2.09516        3.22804
H          2.28839       -2.02461        1.63031
H          0.59212       -1.66732        1.84564
C          0.63546        1.06560        3.66729
H         -0.25737        0.44779        3.67583
H          0.34191        2.05411        3.32669
H          0.97551        1.16077        4.69304
C          5.72392        0.03687        5.68258
H          6.44405       -0.73851        5.92712
H          5.39311        0.47522        6.61946
H          6.25471        0.80490        5.12365
C          4.82424       -2.35125        3.93146
H          5.06659       -3.05711        4.71931
H          5.71038       -2.23442        3.31544
H          4.05216       -2.79965        3.31620
C          2.82543       -0.99334        5.89035
H          1.91634       -1.28641        5.37758
H          2.59101       -0.12571        6.50021
H          3.09131       -1.79666        6.57028
C          1.45838        4.65765        2.91921
C          1.48216        5.07305        1.58832
H          2.26803        4.71081        0.94434
C          0.51809        5.94435        1.12094
H          0.53938        6.26832        0.09127
C         -0.47468        6.40539        1.97242
H         -1.22746        7.08649        1.60420
C         -0.50103        5.99601        3.29650
H         -1.27437        6.35710        3.95820
C          0.46160        5.12693        3.77337
H          0.44891        4.79985        4.80177
C          4.59293        3.48801        5.98451
H          5.52973        2.92101        6.02179
C          4.02510        3.60823        7.39745
H          3.06221        4.11366        7.37143
H          4.70071        4.18214        8.02692
H          3.88925        2.62574        7.84544
C          4.87762        4.86866        5.40016
H          3.98019        5.48435        5.41886
H          5.22031        4.78244        4.36840
H          5.65169        5.36804        5.97786
