79
CSD_code = XUVJUU | q = 0 | S = 0 | Stoichiometry = C26H46Cl2Si4Zr | MND = 12
Zr         4.01706       13.24265       12.38776
Cl         3.14144       14.10037       14.37077
Cl         6.23398       13.39226       13.14919
Si         1.58946       12.58019       10.22220
Si         4.89801       12.32045        9.44601
Si         4.81059       10.38007       14.76831
Si         1.07957       11.14157       13.68208
C          2.77488       14.04578       10.41046
C          4.16285       13.94659       10.07279
C          4.85172       14.95809       10.79519
H          5.90771       15.18130       10.69357
C          3.91484       15.68852       11.56608
C          2.64459       15.10434       11.34271
H          1.71410       15.49547       11.73959
C          2.72972       11.51923       11.31415
C          4.07386       11.32611       10.84361
C          4.83706       10.90927       11.95368
H          5.87749       10.61718       11.91329
C          4.03121       10.86050       13.11527
C          2.70054       11.24405       12.71957
C         -0.18496       13.13638       10.66033
H         -0.73650       12.36176       11.17618
H         -0.71283       13.35402        9.73744
H         -0.21793       14.03077       11.26942
C          1.38478       11.71848        8.52812
H          0.43166       11.19998        8.50217
H          2.16013       10.98909        8.33411
H          1.38121       12.43603        7.71536
C          4.61935       11.88982        7.60932
H          5.49298       12.18313        7.03802
H          3.76453       12.40235        7.18863
H          4.48079       10.82440        7.46636
C          6.78505       12.33823        9.74744
H          7.27515       13.02253        9.06183
H          7.21486       11.35610        9.57818
H          7.03488       12.64470       10.76054
C          4.16613       16.90724       12.42029
H          3.29942       17.02237       13.08690
C          5.39252       16.67908       13.31094
H          5.22784       15.79399       13.93047
H          5.55208       17.52203       13.97745
H          6.29498       16.52355       12.72381
C          4.23445       18.20896       11.56678
C          2.91033       18.36466       10.81033
H          2.91922       19.27914       10.22124
H          2.07498       18.41606       11.50551
H          2.74965       17.52698       10.13656
C          4.41428       19.42481       12.48131
H          4.27599       20.34089       11.91065
H          5.41066       19.45034       12.91369
H          3.68449       19.41351       13.28799
C          5.37655       18.17351       10.55067
H          5.40292       19.10949        9.99638
H          5.23398       17.36361        9.84038
H          6.33709       18.04794       11.04302
C          6.67875       10.07369       14.47072
H          7.16844        9.82502       15.40773
H          7.17296       10.95364       14.07097
H          6.85255        9.24713       13.78786
C          4.12240        8.72149       15.43823
H          3.55005        8.86212       16.34695
H          4.94249        8.05238       15.67498
H          3.48879        8.21632       14.71768
C          4.68450       11.77281       16.06978
H          3.66408       12.09860       16.24689
H          5.25250       12.64464       15.74925
H          5.09600       11.44591       17.02048
C          0.25521       12.85622       13.91459
H         -0.81297       12.81527       13.72569
H          0.68656       13.61495       13.26700
H          0.39164       13.20004       14.93503
C          1.13067       10.35569       15.41918
H          0.14417       10.42835       15.86747
H          1.82758       10.85447       16.08170
H          1.39426        9.30642       15.38282
C         -0.04336        9.99111       12.63243
H         -1.08678       10.10884       12.90600
H          0.21793        8.95166       12.80276
H          0.04746       10.17412       11.56693
