63
CSD_code = XUWHII | q = 0 | S = 0 | Stoichiometry = C22H37NOSiW | MND = 10
C          2.50753       -0.32470       16.36226
C          3.00706       -0.34322       15.01922
C          2.31752       -1.37223       14.30774
C          1.37659       -1.97036       15.18896
C          1.50214       -1.34468       16.46151
C          3.11950        0.42762       17.51218
H          3.97257       -0.12395       17.91390
H          2.39352        0.57007       18.31072
H          3.46478        1.41019       17.19275
C          4.22154        0.39949       14.54461
H          4.28659        1.37794       15.01831
H          4.19978        0.54333       13.46665
H          5.12622       -0.15945       14.79621
C          2.74137       -1.93827       12.98479
H          3.53910       -2.66698       13.14995
H          3.12422       -1.16728       12.32192
H          1.92468       -2.45419       12.48055
C          0.58485       -3.22015       14.92502
H          0.39592       -3.35970       13.86107
H         -0.37346       -3.19730       15.44319
H          1.13738       -4.09280       15.28166
C          0.88478       -1.84305       17.73407
H         -0.11151       -2.24450       17.56000
H          0.80687       -1.04643       18.47026
H          1.50525       -2.63910       18.15235
C         -1.24939       -0.12442       13.98422
C         -0.65825        0.94977       13.29672
C          0.61316        0.68413       12.71099
C          2.31438        3.39541       12.46554
H          3.02392        3.07048       13.22016
H          1.58826        4.02552       12.96907
H          2.85200        4.01607       11.75404
C          0.37292        2.56543       10.17433
H         -0.39004        3.25118       10.52590
H         -0.13008        1.75314        9.65778
H          0.97119        3.09361        9.43785
C          2.89613        0.98280       10.64234
H          3.24021        1.58858        9.81031
H          2.55532        0.03764       10.22996
H          3.76395        0.78489       11.26379
C         -1.35241        2.29463       13.20959
H         -0.61626        3.03378       12.87242
C         -2.43060        2.17619       12.16131
C         -3.59587        2.79710       12.23423
C         -3.98878        3.70027       13.36104
C         -2.78614        4.06017       14.22954
C         -1.95977        2.81103       14.51901
H         -2.60484        2.05327       14.96405
H         -1.16371        3.03590       15.23010
N          1.11015        2.09655       15.22227
O          1.44884        3.21190       15.48658
Si         1.50473        1.91465       11.57908
W          0.81276        0.36962       14.99341
H         -0.29272        0.49405       16.19054
H         -2.24442       -0.00086       14.39553
H         -1.05710       -1.13719       13.62315
H          0.69963       -0.34332       12.34004
H         -2.20268        1.53576       11.32100
H         -4.33543        2.66106       11.45607
H         -4.74729        3.19208       13.96640
H         -4.45507        4.60422       12.96035
H         -3.12264        4.51327       15.16321
H         -2.16434        4.79013       13.70775
