43
CSD_code = XUWSEP | q = 0 | S = 0 | Stoichiometry = C14H25NSi2Zr | MND = 12
Zr         0.65931        2.83400        3.36403
Si         1.74145        5.39634        5.31167
Si         2.10765        2.51841        6.13388
C          0.58993        6.04083        6.69444
H         -0.45948        5.91893        6.44487
H          0.76032        7.09542        6.88544
H          0.77181        5.50491        7.62127
C          3.51970        5.88401        5.80335
H          3.76644        5.49513        6.78534
H          3.64015        6.96163        5.83511
H          4.25243        5.48998        5.10658
C          0.62711        1.43954        6.70023
H         -0.10928        2.02160        7.24740
H          0.95612        0.64002        7.35686
H          0.13336        0.98305        5.84186
C          3.39666        1.40285        5.26038
H          2.93416        0.85486        4.43897
H          3.82291        0.67631        5.94529
H          4.21684        1.99354        4.85998
C         -1.81588        2.28820        4.01600
H         -2.13662        1.37466        4.50276
C         -1.84916        2.53184        2.62720
H         -2.20119        1.83798        1.87292
C         -1.49690        3.87728        2.41362
H         -1.58257        4.41308        1.47567
C         -1.21498        4.46255        3.66834
H         -1.06146        5.51874        3.85102
C         -1.41957        3.47483        4.66138
H         -1.39705        3.63980        5.73136
C          2.89264        2.55479        1.95536
H          3.76345        1.97981        2.24192
C          1.88262        2.12554        1.07322
H          1.83604        1.15889        0.58855
C          1.01195        3.20328        0.84416
H          0.21514        3.21716        0.10936
C          1.48284        4.31438        1.58749
H          1.12984        5.33692        1.49520
C          2.65831        3.90683        2.26726
H          3.33202        4.55615        2.81132
N          1.56985        3.71208        5.01860
H          0.69312        1.07377        3.42510
H          2.73882        3.05711        7.36279
H          1.41303        6.13137        4.04842
