80
CSD_code = XUZHAB | q = 0 | S = 0 | Stoichiometry = C31H43N2PRuSi2 | MND = 9
Ru         4.13934       -1.71258        2.13610
P          4.75958       -0.49992        3.98617
Si         3.17174        2.26988        3.81215
Si         3.81669       -2.40552        6.35591
N          2.25038        1.64482        2.49561
N          2.49992       -2.52961        5.24951
C          3.66950        0.71517        4.80650
C          5.24528       -1.52965        5.43534
C          4.66040        3.34622        3.28668
C          2.08240        3.27693        5.02206
C          3.36500       -1.38356        7.90547
C          4.45842       -4.11880        6.92826
C          1.60394        2.28155        1.45666
C          1.13617        1.52785        0.37806
C          0.46067        2.13185       -0.66298
C          0.23569        3.49916       -0.65373
C          0.70198        4.25455        0.40908
C          1.38046        3.65676        1.45371
C          6.28697        0.49966        3.78235
C          6.81754        0.65054        2.50724
C          7.96845        1.38907        2.29750
C          8.60486        1.99466        3.36727
C          8.07526        1.86689        4.64083
C          6.92516        1.12743        4.84757
C          1.21445       -3.00496        5.42703
C          0.84534       -3.71864        6.56501
C         -0.44400       -4.19549        6.70432
C         -1.38854       -3.97372        5.71642
C         -1.02991       -3.26236        4.58299
C          0.25569       -2.78107        4.43744
C          5.90307       -2.49694        1.02419
C          5.92874       -2.97577        2.34495
C          4.83865       -3.71715        2.86387
C          3.68175       -3.91278        2.09605
C          3.64510       -3.40147        0.76353
C          4.74855       -2.71324        0.23568
C          2.57084       -4.79615        2.58668
H          2.39464        0.65559        2.30803
H          2.76206        0.17438        5.07778
H          4.16811        1.01761        5.72809
H          5.98041       -2.25747        5.09143
H          5.75916       -0.88082        6.14386
H          5.22969        2.85857        2.50147
H          4.32261        4.30285        2.90003
H          5.33990        3.54634        4.10988
H          2.59583        3.47044        5.95909
H          1.80833        4.23849        4.60361
H          1.16078        2.75161        5.25284
H          4.18631       -1.35551        8.61563
H          3.10257       -0.35892        7.66017
H          2.51219       -1.82080        8.41405
H          3.86432       -4.49797        7.75312
H          4.41432       -4.86294        6.13762
H          5.48738       -4.06562        7.27319
H          2.63740       -2.10177        4.33250
H          1.32451        0.46290        0.37144
H          0.10641        1.53330       -1.49031
H         -0.29401        3.97127       -1.46775
H          0.53640        5.32267        0.42398
H          1.74619        4.24789        2.27744
H          6.29219        0.19661        1.67639
H          8.36724        1.49726        1.29900
H          9.50508        2.57051        3.21032
H          8.56077        2.34876        5.47760
H          6.52418        1.05322        5.84853
H          1.57893       -3.89832        7.33443
H         -0.71288       -4.74799        7.59340
H         -2.39399       -4.35016        5.82948
H         -1.75885       -3.07862        3.80697
H          0.53485       -2.22027        3.55616
H          6.78933       -2.05270        0.58452
H          6.84768       -2.89318        2.92155
H          4.92010       -4.18918        3.83740
H          2.79503       -3.63395        0.12808
H          4.74219       -2.40377       -0.80585
H          2.56100       -4.85332        3.67343
H          1.60138       -4.42890        2.25409
H          2.70494       -5.80494        2.18845
H          4.04561       -0.39206        1.35619
H          2.66350       -1.41973        2.45287
