88
CSD_code = XUZVOF | q = 0 | S = 0 | Stoichiometry = C30H48N4PSi4Ta | MND = 5
Ta         2.14123        3.84735        4.03436
P          2.17839        6.38340        3.69146
Si         4.37711        5.35636        2.06201
Si         2.58880        5.99106        6.55774
Si        -0.45369        5.52316        2.75235
Si         2.08770        0.34788        4.50910
N          4.06938        4.06331        3.15851
N          1.91720        4.48687        6.05240
N          0.45925        4.06178        2.74650
N          2.11401        2.04437        4.27927
C          3.75015        6.95145        2.94638
H          4.43007        7.26587        3.73672
H          3.58696        7.78891        2.26896
C          1.98284        7.29095        5.26822
H          0.93216        7.53856        5.41230
H          2.56498        8.21180        5.27053
C          0.83517        6.94788        2.58443
H          1.21634        7.02634        1.56740
H          0.45097        7.91980        2.89199
C          6.22783        5.52713        1.64004
H          6.38999        6.29438        0.89171
H          6.59895        4.58928        1.24407
H          6.82751        5.77561        2.50862
C          3.34506        5.14726        0.45443
H          2.32792        4.84307        0.70094
H          3.77163        4.37735       -0.18224
H          3.29357        6.06094       -0.13121
C          4.88876        2.92857        3.03565
C          4.54649        1.90263        2.15393
H          3.61752        1.98550        1.60493
C          5.36761        0.80201        2.01051
H          5.09650        0.01500        1.32192
C          6.54262        0.70253        2.73975
H          7.18338       -0.15876        2.62426
C          6.88640        1.71289        3.62069
H          7.79759        1.64049        4.19718
C          6.07115        2.82117        3.76410
H          6.34332        3.61549        4.44487
C          2.02160        6.48946        8.30764
H          0.95111        6.65267        8.36357
H          2.51542        7.39669        8.63629
H          2.26899        5.70086        9.00836
C          4.50811        5.94462        6.47162
H          4.91906        5.37537        7.30056
H          4.95248        6.93547        6.50659
H          4.82882        5.45993        5.54964
C          1.72439        3.51982        7.05333
C          2.75276        2.63987        7.39272
H          3.67977        2.69406        6.83686
C          2.57370        1.71110        8.39849
H          3.37746        1.03733        8.65755
C          1.37074        1.64154        9.08430
H          1.23449        0.91530        9.87153
C          0.34366        2.50654        8.74969
H         -0.59912        2.45512        9.27541
C          0.51905        3.44351        7.74729
H         -0.27892        4.12631        7.49125
C         -1.70616        5.60456        1.31790
H         -1.22229        5.60585        0.34749
H         -2.32168        6.49429        1.38510
H         -2.36003        4.74137        1.35593
C         -1.35369        5.75787        4.43407
H         -2.21579        5.10090        4.50642
H         -1.70728        6.77471        4.58054
H         -0.68186        5.50935        5.25548
C         -0.21362        2.90684        2.31315
C         -0.93812        2.13042        3.21834
H         -0.93007        2.41634        4.26214
C         -1.62558        1.01355        2.78683
H         -2.18764        0.42147        3.49437
C         -1.60557        0.64983        1.44908
H         -2.14548       -0.22325        1.11449
C         -0.88453        1.41104        0.54589
H         -0.85882        1.13111       -0.49759
C         -0.19892        2.53478        0.97092
H          0.35697        3.13558        0.26490
C          1.82212       -0.55370        2.83669
H          1.45480       -1.56361        2.98888
H          2.74887       -0.61827        2.27804
H          1.09990       -0.02331        2.22585
C          3.74364       -0.25736        5.26519
H          3.77232       -0.07747        6.33376
H          4.58308        0.26206        4.81622
H          3.88294       -1.32155        5.10360
C          0.66549       -0.14782        5.69740
H          0.83582       -1.13062        6.12518
H         -0.28549       -0.17254        5.17778
H          0.58219        0.56210        6.51296
