67
CSD_code = YALZOB | q = 0 | S = 0 | Stoichiometry = C28H24Cl2F10Si2Zr | MND = 12
Zr         3.06343        7.77977        3.69545
Cl         0.93056        7.48159        4.59914
Cl         2.32557        8.33100        1.54896
Si         1.86349        4.99634        1.60241
F          2.67366        2.18292       -0.64894
F          5.16403        1.18414       -1.01748
F          6.85529        0.89778        1.11122
F          5.99976        1.59621        3.61330
F          3.50123        2.56636        3.97164
C          3.17411        5.54846        2.83521
C          4.43748        6.13757        2.52458
H          4.82099        6.30447        1.52387
C          5.15250        6.31787        3.72265
H          6.18741        6.62518        3.80263
C          4.33821        5.87613        4.79245
H          4.64276        5.78476        5.82765
C          3.13183        5.39525        4.24985
H          2.35151        4.88675        4.80368
C          0.11773        5.68466        1.93815
H          0.09429        6.76165        1.79286
H         -0.20943        5.48287        2.95507
H         -0.60976        5.24396        1.26308
C          2.46629        5.30728       -0.17858
H          1.80258        4.83323       -0.89423
H          3.46198        4.90679       -0.34830
H          2.49055        6.36875       -0.40251
C          1.70799        3.06407        1.84658
H          1.32198        2.85526        2.83969
H          1.00534        2.68905        1.10988
C          3.02593        2.43225        1.66701
C          3.48960        2.05151        0.40848
C          4.76138        1.53312        0.20881
C          5.62304        1.38379        1.29094
C          5.18668        1.74243        2.56205
C          3.90762        2.25287        2.73209
Si         1.15428       10.84136        4.45400
F          0.79491       13.50918        6.94943
F          2.60252       14.04142        8.89359
F          5.27818       13.97321        8.33503
F          6.10723       13.40255        5.79182
F          4.29095       12.90379        3.85227
C          2.84709       10.02026        4.51156
C          3.39010        9.27367        5.60121
H          2.90212        9.11703        6.55704
C          4.71214        8.91447        5.28155
H          5.42363        8.45343        5.95468
C          4.99940        9.40098        3.98421
H          5.96590        9.37913        3.49616
C          3.86265       10.08643        3.51603
H          3.80882       10.66313        2.60013
C          0.12644       10.41397        2.90651
H          0.68331       10.58696        1.98892
H         -0.77820       11.01303        2.86229
H         -0.16910        9.36792        2.91928
C          0.21974       10.53839        6.08677
H         -0.67420       11.15162        6.13363
H          0.82295       10.78433        6.95595
H         -0.08522        9.50084        6.17490
C          1.51053       12.75948        4.32712
H          1.88784       12.99301        3.33632
H          0.57218       13.28274        4.47821
C          2.49083       13.15329        5.35327
C          2.10369       13.46812        6.65504
C          3.02114       13.74955        7.65769
C          4.38306       13.71868        7.37532
C          4.80231       13.42487        6.08212
C          3.86168       13.15418        5.09868
