56
CSD_code = YEBTOO | q = 0 | S = 0 | Stoichiometry = C19H33ClSi2W | MND = 12
W          0.69620        2.02124        4.44510
Cl         0.55725        5.78111        4.79991
Si         2.83573        2.22567        5.78022
Si        -0.26729        4.02550        5.63298
C         -0.00068        0.83757        6.27869
C          0.82874       -0.06029        5.51904
C          0.18253       -0.29849        4.29671
C         -1.05388        0.39369        4.29247
C         -1.19773        1.06510        5.51335
C          2.27280        2.18329        2.72426
C          1.21459        1.41660        2.20837
C          0.05556        2.22995        2.13772
C          0.38055        3.50751        2.60354
C          1.75241        3.48705        3.02521
C          2.87801        1.67460        7.63829
C          4.20786        1.03762        5.08101
C          3.71509        3.93881        5.83995
C          0.03897        4.30209        7.55014
C         -1.09807        3.75021        8.40737
C          0.32797        5.74737        7.94947
C         -2.19517        4.35246        5.37617
C         -2.61769        5.78999        5.68057
C         -2.69867        3.98701        3.98057
H          0.08508        0.98748        7.34839
H          1.68724       -0.59441        5.89440
H          0.49771       -1.01582        3.55191
H         -1.81418        0.30485        3.52851
H         -2.10446        1.51899        5.88233
H          3.31551        1.91118        2.71130
H          1.30813        0.42821        1.77933
H         -0.88076        1.94515        1.67835
H         -0.22457        4.39527        2.52018
H          2.34935        4.37592        3.18870
H          2.18515        2.22194        8.26674
H          3.87190        1.84631        8.04008
H          2.66243        0.61797        7.76049
H          4.86788        1.55269        4.39020
H          3.80063        0.17505        4.56065
H          4.83116        0.65938        5.88503
H          4.54497        3.91664        6.53867
H          3.04197        4.72788        6.15372
H          4.11627        4.21921        4.87189
H          0.93564        3.73127        7.80171
H         -1.32110        2.71724        8.15040
H         -2.00347        4.33717        8.27866
H         -0.82830        3.78522        9.46278
H          1.20519        6.12098        7.42996
H         -0.50584        6.40213        7.71277
H          0.51555        5.80976        9.02139
H         -2.72170        3.70568        6.08587
H         -2.41075        6.05073        6.71430
H         -3.68720        5.91411        5.50886
H         -2.08481        6.48814        5.04035
H         -3.78741        4.02844        3.94693
H         -2.31981        4.69323        3.24626
H         -2.38982        2.98490        3.69187
