57
CSD_code = YEKSOW | q = 0 | S = 0 | Stoichiometry = C28H25ClOSiZr | MND = 12
Zr         3.80267        5.48782        9.77565
Cl         4.54577        3.26467        9.61191
O          3.78990        5.75153       11.63755
Si         3.91727        5.65752       13.23172
C          1.89496        4.43935        8.51366
C          1.49591        4.51697        9.86902
C          1.36857        5.88209       10.20920
C          1.71060        6.64894        9.07218
C          2.02633        5.75231        8.02019
C          5.88377        6.87141       10.07064
C          4.91899        7.72014        9.48008
C          4.65341        7.23811        8.17773
C          5.41855        6.06829        7.97730
C          6.19003        5.85123        9.14537
C          5.74628        5.27009       13.58777
C          6.42615        5.64348       14.74115
C          7.76373        5.33154       14.91359
C          8.44648        4.63662       13.92992
C          7.78487        4.25544       12.77381
C          6.44834        4.57034       12.60720
C          2.80250        4.21469       13.77379
C          2.70578        3.12753       12.90667
C          1.90908        2.03894       13.21272
C          1.19129        2.01839       14.39758
C          1.27450        3.09125       15.26847
C          2.07335        4.17788       14.95642
C          3.35579        7.33332       13.91727
C          3.32008        7.63644       15.27252
C          2.89180        8.87508       15.71696
C          2.49009        9.83745       14.80626
C          2.52000        9.55419       13.45068
C          2.94899        8.31357       13.01633
H          1.21599        3.67978       10.49733
H          1.97630        3.52882        7.93104
H          2.18557        6.01918        6.98168
H          1.59664        7.72320        8.97820
H          0.98302        6.26447       11.14693
H          4.07966        7.75908        7.42087
H          4.57190        8.66046        9.89151
H          6.36858        7.03115       11.02623
H          6.96008        5.09723        9.26221
H          5.51486        5.51773        7.04720
H          3.27223        3.14408       11.98037
H          1.84928        1.20378       12.52925
H          0.56858        1.16947       14.64070
H          0.71417        3.08060       16.19270
H          2.12496        5.01388       15.63825
H          5.92585        4.26998       11.70216
H          8.31204        3.71005       12.00411
H          9.49063        4.39310       14.06351
H          8.27606        5.63131       15.81676
H          5.90396        6.19168       15.51116
H          2.97516        8.07993       11.95533
H          2.20697       10.30324       12.73668
H          2.15472       10.80469       15.15161
H          2.86985        9.09236       16.77549
H          3.63114        6.89251       15.99155
