75
CSD_code = YEQTOE | q = 0 | S = 0 | Stoichiometry = C26H43FeNOP2Si | MND = 6
Fe         2.34030       10.61903        2.86118
H          0.96599       11.05798        2.58279
P          2.06188        9.39457        1.12310
P          2.48278       12.18344        4.31145
Si         1.35076        9.21036        4.28970
H         -0.11831        9.01989        4.13278
H          1.33620        9.54842        5.74980
O          5.00313        9.72316        3.55066
N          2.97054       11.99600        1.58840
C          1.88191       10.72743       -0.15570
H          0.83542       11.04476       -0.08295
H          2.09231       10.41157       -1.18121
C          2.73523       11.87670        0.27043
C          3.21794       12.79718       -0.64596
H          3.01387       12.66080       -1.69714
C          3.94732       13.88771       -0.20217
H          4.33857       14.61370       -0.89750
C          4.14477       14.02946        1.16175
H          4.68788       14.87501        1.55583
C          3.64216       13.07349        2.02902
C          3.81927       13.19740        3.50842
H          3.85332       14.24291        3.82645
H          4.75916       12.71014        3.79786
C          0.56822        8.31765        0.81025
H          0.62487        7.56914        1.61139
C          0.53290        7.60315       -0.54038
H          1.29437        6.83093       -0.61206
H          0.65953        8.30565       -1.36281
H         -0.43684        7.12119       -0.65958
C         -0.71008        9.12887        1.01048
H         -0.59432        9.81421        1.84636
H         -0.95281        9.70080        0.11575
H         -1.54747        8.46703        1.22255
C          3.43866        8.39333        0.36095
H          3.09702        8.04423       -0.62098
C          4.68173        9.25353        0.15625
H          4.98735        9.72001        1.08883
H          4.51024       10.04025       -0.57713
H          5.50638        8.63524       -0.19664
C          3.74145        7.20042        1.25997
H          4.08379        7.54117        2.23471
H          2.85596        6.58676        1.41888
H          4.51934        6.57581        0.82232
C          1.07303       13.39285        4.46789
H          1.35529       14.17932        5.17993
C          0.75297       14.02481        3.11898
H         -0.14465       14.63704        3.19426
H          0.57144       13.24036        2.38625
H          1.56664       14.65400        2.76114
C         -0.13702       12.62923        4.99460
H         -1.00150       13.28676        5.07301
H         -0.37119       11.81527        4.31196
H          0.05849       12.19641        5.97358
C          3.07497       12.13184        6.08459
H          2.17181       11.89325        6.66291
C          3.66122       13.44800        6.59502
H          3.80162       13.38331        7.67325
H          3.01184       14.29726        6.39519
H          4.63317       13.63925        6.14480
C          4.07967       11.00474        6.29109
H          4.34219       10.92588        7.34549
H          4.99481       11.18650        5.73011
H          3.65618       10.05592        5.97120
C          1.94854        7.40686        4.34773
C          3.22597        7.07938        4.78370
H          3.88909        7.86472        5.11779
C          3.67283        5.77068        4.80515
H          4.67285        5.54478        5.14993
C          2.83991        4.74871        4.38282
H          3.18541        3.72432        4.39217
C          1.55709        5.05009        3.95885
H          0.89361        4.25705        3.63992
C          1.12356        6.36400        3.94928
H          0.11247        6.58831        3.63899
C          3.92310       10.04321        3.28323
