136
CSD_code = YETHIO | q = 0 | S = 0 | Stoichiometry = C42H86O3PSi3Ta | MND = 4
Ta        -0.69376       12.92619       14.18259
P          0.14796       10.71011       14.74095
Si         1.24320       12.61033       11.26210
Si        -4.22643       12.88482       13.93989
Si         0.31540       14.93026       16.92334
O          0.20534       12.71716       12.53516
O         -2.68203       12.86911       14.43809
O         -0.22479       13.90325       15.77999
C         -0.47203       10.41070       16.41089
C          0.33178        9.68029       17.29144
C         -0.11946        9.34428       18.55220
C         -1.39030        9.71654       18.96090
C         -2.20428       10.42849       18.09354
C         -1.75357       10.77353       16.83377
C          1.25185       10.74745       10.66248
C          2.07504        9.85210       11.59444
C         -0.17452       10.19035       10.68899
C          1.82932       10.58995        9.25334
C          2.97304       13.18910       11.97905
C          2.95811       14.69649       12.25504
C          4.14528       12.89135       11.04124
C          3.24139       12.50129       13.32164
C          0.53392       13.85806        9.91967
C          0.01084       15.12768       10.60504
C         -0.64417       13.24613        9.15307
C          1.58270       14.26150        8.88085
C         -5.42577       13.32361       15.42598
C         -6.88955       13.06817       15.06032
C         -5.10198       12.50633       16.67978
C         -5.29401       14.79788       15.82168
C         -4.24876       14.28074       12.55185
C         -3.48260       13.78118       11.32465
C         -5.64769       14.70008       12.09787
C         -3.50689       15.53218       13.03758
C         -4.57162       11.08618       13.21515
C         -4.87600       10.06928       14.32138
C         -5.74389       11.05583       12.23100
C         -3.31976       10.56058       12.50283
C          2.20896       14.50927       17.18969
C          2.77328       15.09404       18.48596
C          2.40065       12.98750       17.20162
C          3.05865       15.04989       16.03641
C          0.00743       16.71132       16.15011
C          0.46271       16.75144       14.68580
C         -1.49160       17.02969       16.14770
C          0.72940       17.82528       16.91034
C         -0.76213       14.57770       18.51540
C         -2.22147       14.37534       18.09811
C         -0.31946       13.27651       19.19168
C         -0.69294       15.69779       19.55448
H          1.31971        9.38358       16.96960
H          0.52102        8.78782       19.22162
H         -1.74501        9.45167       19.94589
H         -3.19948       10.71446       18.40264
H         -2.40037       11.31645       16.15616
H          1.72840        9.94489       12.62001
H          3.13272       10.09221       11.54591
H          1.96149        8.81101       11.29182
H         -0.82428       10.70299        9.98849
H         -0.58637       10.29341       11.69038
H         -0.16679        9.13273       10.42719
H          1.22543       11.10143        8.51095
H          1.86307        9.53478        8.98335
H          2.83986       10.98475        9.19972
H          2.08951       14.96202       12.85507
H          2.93733       15.26967       11.33309
H          3.85622       14.98741       12.80079
H          4.00392       13.35799       10.07128
H          4.26524       11.82331       10.88970
H          5.07127       13.27389       11.47022
H          2.39344       12.64025       13.99406
H          4.12888       12.92766       13.78901
H          3.40517       11.43731       13.20433
H         -0.66968       14.87134       11.41458
H         -0.52834       15.74571        9.88663
H          0.81891       15.72387       11.01439
H         -0.31849       12.43255        8.51268
H         -1.10478       14.00111        8.51491
H         -1.40113       12.87159        9.83298
H          1.99577       13.38734        8.38633
H          2.39923       14.81657        9.33147
H          1.12830       14.89767        8.12117
H         -7.17836       13.61233       14.16675
H         -7.53586       13.39165       15.87665
H         -7.07527       12.01211       14.89094
H         -5.24744       11.44435       16.52142
H         -5.75198       12.81525       17.49948
H         -4.07502       12.67314       16.98271
H         -5.69506       15.45087       15.05211
H         -4.25453       15.05476       16.00215
H         -5.85316       14.98862       16.73825
H         -2.50475       13.40094       11.62575
H         -3.33279       14.59406       10.61276
H         -4.02337       12.99178       10.81079
H         -6.19273       15.18621       12.90175
H         -6.22546       13.84485       11.76054
H         -5.57593       15.40782       11.27114
H         -2.51960       15.26931       13.41667
H         -4.04802       16.04116       13.82721
H         -3.37850       16.23618       12.21400
H         -5.82269       10.28037       14.80922
H         -4.08460       10.05523       15.06588
H         -4.94573        9.06954       13.89111
H         -5.53705       11.64789       11.34479
H         -6.65134       11.43592       12.69092
H         -5.93245       10.03178       11.90795
H         -3.03645       11.18129       11.65971
H         -3.49967        9.55246       12.12849
H         -2.48211       10.51754       13.20181
H          2.64863       16.17323       18.51320
H          3.83801       14.87313       18.56177
H          2.28492       14.67357       19.35905
H          1.97727       12.53508       18.09072
H          3.46256       12.74303       17.17418
H          1.92067       12.53481       16.33373
H          3.09056       16.13572       16.04253
H          2.66337       14.70777       15.08570
H          4.08423       14.69102       16.13000
H          1.54305       16.71003       14.60166
H          0.12751       17.67629       14.21477
H          0.03833       15.91472       14.12789
H         -2.05186       16.21977       15.68733
H         -1.68323       17.94274       15.58247
H         -1.86266       17.18453       17.15627
H          1.80712       17.69959       16.86425
H          0.43553       17.83892       17.95549
H          0.48636       18.79526       16.47604
H         -2.26337       13.71933       17.23118
H         -2.70104       15.31516       17.84717
H         -2.78844       13.91955       18.90959
H         -0.31101       12.45854       18.47783
H         -1.01436       13.01834       19.99147
H          0.66654       13.37180       19.63559
H         -1.09459       16.62796       19.16269
H          0.33041       15.87583       19.87212
H         -1.27857       15.42606       20.43271
