54
CSD_code = YEVJEO | q = 0 | S = 0 | Stoichiometry = C19H25O6PSi2W | MND = 6
W          3.06219        7.45532        2.42930
P          3.50782        5.44271        3.75662
Si         1.94263        2.82122        4.21513
Si         4.76886        3.00857        2.38233
O          0.11243        6.47087        2.00661
O          6.04547        8.41342        2.70904
O          3.64138        5.88500       -0.22163
O          2.44983        9.95734        0.66190
O          1.98415        9.15149        4.83904
O          3.24992        5.40539        5.36754
C          1.18262        6.82959        2.18741
C          4.96057        8.06480        2.63942
C          3.50764        6.44119        0.77017
C          2.68051        9.04503        1.31100
C          2.44192        8.50844        4.01519
C          4.65697        5.21842        5.11456
H          4.98950        4.20284        5.31282
C          5.58200        6.29926        5.48340
C          5.11079        7.57107        5.79153
H          4.04544        7.73605        5.84968
C          5.99611        8.59825        6.06172
H          5.61802        9.58101        6.30102
C          7.36041        8.36845        6.01996
H          8.05196        9.17252        6.22073
C          7.83685        7.10079        5.72641
H          8.90040        6.91577        5.70129
C          6.95584        6.06960        5.46233
H          7.32884        5.08070        5.23408
C          3.15277        3.79390        3.07688
H          2.56161        4.03370        2.18539
C          2.67673        2.30680        5.89786
H          3.60197        1.74932        5.79609
H          1.97210        1.67056        6.42528
H          2.86909        3.16965        6.52632
C          1.43118        1.25240        3.26130
H          2.26613        0.57457        3.12113
H          1.03023        1.48985        2.28187
H          0.66306        0.71601        3.80678
C          0.43857        3.96601        4.45543
H         -0.10074        4.11757        3.52422
H          0.76061        4.94159        4.81268
H         -0.26580        3.56660        5.17877
C          4.30491        2.15128        0.74549
H          3.94452        2.86562        0.01155
H          3.52828        1.40748        0.88942
H          5.16489        1.64866        0.31576
C          6.06066        4.36910        2.03489
H          6.27833        4.96289        2.91864
H          5.71635        5.05237        1.26442
H          6.99718        3.94177        1.68925
C          5.52492        1.72823        3.57875
H          5.84111        2.16498        4.52069
H          6.40052        1.27550        3.12435
H          4.82510        0.92936        3.79994
