84
CSD_code = YICXEO | q = 0 | S = 0 | Stoichiometry = C29H49N2O2SiY | MND = 9
Y          1.12282        3.98614        2.82454
Si         3.00574        1.64774        3.89491
N          2.62070        3.29662        4.28448
N         -0.01468        5.53466        1.97864
O         -0.42338        4.11787        4.96467
O          3.15192        4.81169        1.50713
C          2.01307        1.55327        2.28272
C          2.43200        1.47069        0.95491
C          1.30653        1.53504        0.10076
C          0.16058        1.67562        0.87980
C          0.54918        1.73129        2.25730
C          3.84200        1.29194        0.47859
H          3.97072        1.68684       -0.52867
H          4.10659        0.23259        0.45402
H          4.53930        1.79295        1.14275
C          1.33554        1.45635       -1.39559
H          1.48286        2.44215       -1.84755
H          0.39753        1.05493       -1.77328
H          2.14176        0.80708       -1.73182
C         -1.24887        1.63058        0.36502
H         -1.50887        0.61371        0.06096
H         -1.37596        2.27881       -0.50169
H         -1.95820        1.94283        1.12865
C         -0.35914        1.19866        3.35686
H         -1.37197        1.59830        3.27351
H          0.02761        1.42284        4.34977
H         -0.43098        0.11009        3.26508
C          2.41743        0.35513        5.20018
H          3.25815       -0.03832        5.76274
H          1.91782       -0.48655        4.73274
H          1.72848        0.79255        5.91746
C          4.88357        1.28920        3.72154
H          5.41965        2.10799        3.25192
H          5.06319        0.39152        3.14129
H          5.32802        1.13861        4.69973
C          3.13568        4.06769        5.27651
C          3.95448        3.58599        6.31462
H          4.19068        2.53363        6.33610
C          4.43913        4.42692        7.29213
H          5.06404        4.02288        8.07725
C          4.13704        5.78091        7.28640
H          4.52186        6.43332        8.05571
C          3.33136        6.28274        6.27565
H          3.08556        7.33673        6.25560
C          2.84045        5.44821        5.29431
H          2.20175        5.84429        4.49551
C         -0.74969        5.43008        0.72688
H         -0.35063        4.59718        0.13153
H         -0.63870        6.34999        0.12905
C         -2.25287        5.18129        0.94944
H         -2.38705        4.28403        1.55086
H         -2.76283        5.05044       -0.00218
H         -2.70654        6.02038        1.47313
C         -0.02814        6.89994        2.48095
H         -0.95233        7.41560        2.17618
H         -0.00506        6.89613        3.58184
C          1.16831        7.73518        1.98436
H          2.10239        7.25732        2.27973
H          1.13439        8.73751        2.40717
H          1.14658        7.81610        0.89920
C         -1.82124        4.43245        4.91543
H         -2.37753        3.53629        4.60639
H         -1.96796        5.21855        4.17133
C         -2.21593        4.84094        6.33032
H         -1.96256        5.88607        6.50952
H         -3.27530        4.69234        6.52433
C         -1.31587        3.92909        7.15962
H         -1.73599        2.92360        7.20330
H         -1.15468        4.28954        8.17224
C         -0.03110        3.94019        6.33625
H          0.54620        3.01561        6.41734
H          0.61701        4.77676        6.62531
C          4.47815        5.05359        1.99488
H          4.67788        4.34521        2.80188
H          4.53182        6.07512        2.39843
C          5.40269        4.90234        0.79300
H          5.62996        3.85101        0.61856
H          6.33180        5.45362        0.91447
C          4.52364        5.44453       -0.33089
H          4.53764        6.53530       -0.32773
H          4.82255        5.09124       -1.31480
C          3.14636        4.92384        0.07406
H          2.33302        5.59565       -0.21652
H          2.95797        3.92873       -0.34424
