89
CSD_code = YIDBOD | q = 0 | S = 0 | Stoichiometry = C32H53NSi2Zr | MND = 14
Zr         1.86385        0.53599        4.09972
Si         5.61002       -0.82174        3.81166
Si         3.85450       -3.02160        6.18624
N          0.63129        0.02712        5.74486
C          1.58251        3.14473        3.87251
C          1.08628        2.96384        5.18935
C          2.11775        2.42268        5.98594
C          3.26278        2.23651        5.16937
C          2.93752        2.69076        3.84586
C         -0.04035        0.37392        2.45997
C          1.11823        0.71053        1.69332
C          2.00588       -0.40096        1.73262
C          1.38832       -1.43101        2.48896
C          0.13484       -0.95578        2.94737
C         -0.69897        0.33162        5.83656
H         -1.22668        0.79347        5.01732
C         -1.20107       -0.02569        7.06509
H         -2.21388        0.09036        7.40455
C         -0.12464       -0.57013        7.78817
H         -0.14815       -0.95169        8.79196
C          0.96813       -0.51261        6.95704
H          1.98332       -0.80312        7.18082
C          0.92951        4.08839        2.89500
H          1.52538        4.21784        1.99616
H          0.83046        5.06863        3.36821
H         -0.07055        3.77299        2.60126
C         -0.21668        3.50149        5.70677
H         -0.60618        2.87779        6.50918
H         -0.96645        3.56244        4.91961
H         -0.07268        4.50917        6.10492
C          2.10046        2.30128        7.48159
H          1.10981        2.04164        7.84765
H          2.38466        3.25620        7.93191
H          2.80447        1.54575        7.82537
C          4.63328        1.95969        5.72780
H          5.37738        1.91691        4.93875
H          4.66183        1.01869        6.28059
H          4.91350        2.76000        6.41799
C          3.93909        2.93933        2.74556
H          3.56464        3.68769        2.04818
H          4.18045        2.03041        2.19017
H          4.86418        3.33319        3.16793
C         -1.33739        1.14462        2.43374
H         -2.16063        0.51717        2.77072
H         -1.56465        1.45435        1.41174
H         -1.31796        2.04099        3.05795
C          1.20260        1.77839        0.63313
H          0.38686        2.48986        0.71762
H          1.12807        1.30578       -0.35037
H          2.14558        2.32214        0.65866
C          3.19704       -0.58296        0.83480
H          3.63280        0.37388        0.55270
H          2.89139       -1.08839       -0.08549
H          3.95966       -1.19251        1.31238
C          1.84470       -2.86056        2.55648
H          1.46304       -3.35882        3.44548
H          2.93006       -2.92980        2.55859
H          1.47464       -3.40477        1.68319
C         -0.88069       -1.84103        3.62091
H         -1.80717       -1.31118        3.82623
H         -0.50893       -2.23848        4.56798
H         -1.11429       -2.68798        2.97169
C          3.22348       -1.65029        5.02454
H          2.12280       -1.64950        5.09588
C          3.76287       -0.67697        4.25507
C          2.30748       -4.09087        6.54144
H          1.99829       -4.65682        5.66704
H          1.46535       -3.47883        6.85293
H          2.49988       -4.80664        7.33507
C          4.40218       -2.20037        7.83630
H          4.69676       -1.16317        7.70119
H          5.24421       -2.72355        8.28018
H          3.59466       -2.21480        8.56260
C          5.22595       -4.22876        5.63275
H          6.15134       -3.72368        5.38562
H          4.92461       -4.81189        4.76864
H          5.43678       -4.92954        6.43621
C          5.90045       -2.44828        2.81572
H          5.93504       -2.26335        1.74577
H          5.12647       -3.18470        2.99992
H          6.84838       -2.90180        3.08733
C          6.84962       -0.84064        5.28204
H          7.03773        0.15781        5.66377
H          7.80583       -1.24761        4.96557
H          6.49388       -1.44531        6.10741
C          6.37026        0.49088        2.62719
H          6.46758        1.47481        3.07098
H          5.82140        0.59361        1.69761
H          7.37313        0.16514        2.36503
