105
CSD_code = YILFUV | q = 0 | S = 0 | Stoichiometry = C44H50IrN2O4PS2Si | MND = 8
Ir         3.45423        9.30706        5.11559
S          4.91386        6.26166        5.31300
S          0.89104        9.32206        7.30914
P          2.08230        8.97555        3.30266
Si         2.62105        7.10468        6.80646
O          5.82959        6.79104        4.32355
O          5.49256        5.96507        6.60185
O          1.50458        9.56570        8.59723
O          0.34937       10.49997        6.66257
N          3.62405        7.18755        5.39265
N          1.82098        8.54993        6.28331
C          3.48199        7.19674        8.50982
C          1.46224        5.57392        6.78564
C          4.24300        4.73335        4.67000
C          3.85386        4.65948        3.34650
C          3.24938        3.50767        2.87436
C          3.03401        2.42222        3.71815
C          3.44628        2.50974        5.04352
C          4.04482        3.66394        5.52050
C          2.39226        1.17181        3.19682
C         -0.43769        8.16442        7.57411
C         -0.43840        7.38024        8.71036
C         -1.43108        6.43380        8.88470
C         -2.42194        6.26028        7.92215
C         -2.40717        7.06557        6.78969
C         -1.41822        8.01893        6.61610
C         -3.47880        5.21490        8.11543
C          4.45491       10.71908        6.69279
C          3.77724       11.44215        5.64694
C          4.44403       11.15072        4.40921
C          5.45461       10.16726        4.68348
C          5.46375        9.93116        6.10482
C          4.21491       10.94788        8.14394
C          2.77526       12.51911        5.90659
C          4.32515       11.91349        3.12417
C          6.56451        9.75520        3.77007
C          6.49729        9.10881        6.79434
C          2.82784        8.22511        1.81465
C          4.17367        7.88449        1.80978
C          4.74085        7.30824        0.68379
C          3.96693        7.06612       -0.43843
C          2.61730        7.38625       -0.43025
C          2.04696        7.95925        0.69126
C          1.34742       10.53059        2.69665
C          0.58492       11.25540        3.61254
C          0.00682       12.45516        3.23746
C          0.19350       12.94939        1.95535
C          0.96546       12.24103        1.04980
C          1.54303       11.03656        1.41648
C          0.63276        7.87601        3.43167
C          0.90167        6.52996        3.66107
C         -0.12571        5.60608        3.68431
C         -1.43324        6.01676        3.47628
C         -1.70559        7.35447        3.24823
C         -0.67899        8.28508        3.22546
H          3.17120        6.37610        9.15147
H          3.22899        8.12602        9.01252
H          4.55970        7.12678        8.39903
H          0.49948        5.79974        6.33938
H          1.27879        5.22078        7.79534
H          1.90717        4.75622        6.22873
H          4.03844        5.50320        2.70081
H          2.93967        3.44975        1.84065
H          3.29261        1.67014        5.70627
H          4.37223        3.75670        6.54407
H          3.14293        0.53981        2.72188
H          1.63473        1.40715        2.45266
H          1.93457        0.60378        4.00287
H          0.33753        7.53630        9.44223
H         -1.44223        5.81886        9.77320
H         -3.17535        6.94680        6.03928
H         -1.39416        8.65966        5.75011
H         -3.03342        4.22112        8.08218
H         -4.23821        5.27938        7.34081
H         -3.95750        5.33143        9.08606
H          4.90668       10.37374        8.75474
H          4.34492       12.00753        8.37062
H          3.19768       10.67246        8.42133
H          3.21886       13.29209        6.53591
H          2.43480       12.97539        4.98094
H          1.91105       12.11099        6.42964
H          5.14741       12.62838        3.05992
H          4.38280       11.25088        2.26281
H          3.38940       12.46248        3.07393
H          7.47987       10.27858        4.05299
H          6.74377        8.68541        3.85931
H          6.33574        9.99554        2.73516
H          6.50751        8.09343        6.40114
H          7.48453        9.54263        6.62460
H          6.31674        9.05745        7.86469
H          4.75834        8.03005        2.70529
H          5.78627        7.03921        0.69344
H          4.40884        6.61861       -1.31655
H          2.00894        7.18494       -1.30006
H          0.99255        8.19900        0.70271
H          0.46518       10.88086        4.62128
H         -0.58388       13.00781        3.95247
H         -0.25456       13.88821        1.66459
H          1.12242       12.62867        0.05378
H          2.14960       10.49617        0.70494
H          1.92269        6.22698        3.83535
H          0.09527        4.56373        3.86146
H         -2.23730        5.29553        3.48960
H         -2.72303        7.67882        3.08284
H         -0.90391        9.32556        3.04231
