96
CSD_code = YIQMUI | q = 0 | S = 0 | Stoichiometry = C34H52BN4O2Si2Y | MND = 9
Y          9.60261        0.56148        2.99582
O          8.53459        0.60803        0.67520
B         11.28594        2.88513        1.46208
H         10.44138        3.70593        1.35986
H         10.68977        1.86235        2.54288
H         11.47113        2.22945        0.49447
H         12.26472        3.24641        2.00744
Si         7.64785        3.79227        4.37882
N          7.83098        2.12561        3.99359
C          6.91993        1.16834        3.90834
Si        12.90809       -1.49231        2.18011
O         10.12342       -0.02354        5.44051
N          7.40816        0.01898        3.49311
C          5.50607        1.41476        4.28499
N          9.05335       -1.65194        2.63901
C          4.62671        1.98616        3.37262
H          4.97482        2.21962        2.37676
N         11.21596       -1.31209        2.42207
C          3.31734        2.24450        3.73649
H          2.63813        2.68736        3.02243
C          2.87657        1.93867        5.01344
H          1.85465        2.14344        5.29670
C          3.74876        1.36908        5.92605
H          3.40714        1.12922        6.92253
C          5.05785        1.10708        5.56474
H          5.74084        0.66055        6.27337
C          6.31781        4.24896        5.67919
H          5.31428        4.15932        5.27602
H          6.44656        5.27235        6.01695
H          6.37495        3.60598        6.55261
C          7.28778        4.79407        2.78652
H          8.05978        4.61359        2.04367
H          7.27136        5.86003        2.98933
H          6.32980        4.53050        2.34664
C          9.34997        4.30702        5.07783
H         10.15199        3.79140        4.55528
H          9.44400        4.08862        6.13784
H          9.50731        5.37279        4.95281
C          6.82627       -1.19625        3.19337
C          5.48732       -1.55619        3.29509
H          4.76097       -0.84422        3.65650
C          5.07612       -2.82879        2.92806
H          4.03221       -3.09416        3.01421
C          5.98808       -3.75215        2.44940
H          5.65741       -4.73912        2.15936
C          7.32944       -3.42116        2.33249
H          8.02929       -4.14620        1.94497
C          7.77242       -2.15621        2.70245
C         13.67596       -0.32204        3.48318
H         13.08245        0.58619        3.57007
H         14.68462       -0.03448        3.20654
H         13.72733       -0.78231        4.46615
C         13.66185       -3.23442        2.43127
H         13.33088       -3.68113        3.36409
H         14.74584       -3.18576        2.45622
H         13.38086       -3.91198        1.63159
C         13.35099       -0.88563        0.42004
H         12.95856        0.11435        0.25858
H         12.94209       -1.53566       -0.34883
H         14.42561       -0.84449        0.27570
C         10.22531       -2.18350        2.35701
C         10.46065       -3.60943        2.02216
C         10.65759       -3.98945        0.69956
H         10.61752       -3.23951       -0.07728
C         10.89814       -5.31480        0.38449
H         11.04709       -5.60444       -0.64570
C         10.95192       -6.26913        1.38680
H         11.14310       -7.30306        1.13995
C         10.76037       -5.89478        2.70637
H         10.80318       -6.63740        3.48990
C         10.51339       -4.57154        3.02463
H         10.35854       -4.27637        4.05291
C          9.09707       -0.01387       -0.48010
H          8.46433       -0.86477       -0.77197
H         10.08973       -0.37939       -0.20377
C          9.12753        1.05416       -1.59022
H          8.66521        0.67616       -2.50117
H         10.14719        1.35455       -1.81963
C          8.33078        2.22503       -0.99572
H          9.01146        2.99098       -0.62663
H          7.64008        2.66976       -1.70842
C          7.61130        1.57492        0.18550
H          7.38659        2.26593        1.00049
H          6.69014        1.06901       -0.14263
C          9.66133        0.75137        6.55928
H          8.92650        1.47519        6.19563
H         10.51918        1.28796        6.98855
C          9.09600       -0.25073        7.55909
H          8.07689       -0.52461        7.28362
H          9.10306        0.12847        8.57811
C         10.03280       -1.43724        7.34868
H         10.98002       -1.26548        7.86136
H          9.61241       -2.38080        7.68789
C         10.22576       -1.40273        5.83479
H         11.20044       -1.77780        5.50804
H          9.43388       -1.97000        5.32793
