107
CSD_code = YIZBER | q = 1 | S = 0 | Stoichiometry = C52H48IrOP4Si(1+) | MND = 6
Ir        -1.13173        3.52973        9.90355
P         -0.65855        1.23181       10.28610
P         -2.92521        2.27052        8.91436
P         -4.03601        4.16222        7.15433
P         -1.81479        5.52298        8.91774
Si         0.83474        4.56523       10.89815
O         -2.79886        3.92322       12.40578
C         -2.10958        3.79211       11.50341
C         -2.04005        0.65220        9.16201
C         -3.21733        2.47882        7.11543
C         -2.51043        5.24133        7.23515
C          2.40403        4.66328        9.82606
C          3.16742        5.82682        9.81378
C          4.33300        5.90814        9.07393
C          4.76052        4.82151        8.32927
C          4.01336        3.65556        8.33006
C          2.84765        3.58269        9.07019
C          1.26728        3.59382       12.48057
C          2.04586        2.44236       12.42233
C          2.33095        1.71479       13.56376
C          1.84037        2.12873       14.79083
C          1.07352        3.27941       14.86933
C          0.78990        4.00061       13.72328
C         -1.02688        0.35036       11.83021
C         -1.24406       -1.02648       11.79247
C         -1.51943       -1.71109       12.95977
C         -1.57571       -1.03144       14.16809
C         -1.35152        0.33382       14.20839
C         -1.07743        1.02604       13.04133
C          0.80122        0.35174        9.65312
C          1.64215       -0.36265       10.50089
C          2.77048       -0.97996        9.99085
C          3.07214       -0.88287        8.64235
C          2.24581       -0.15835        7.79777
C          1.11953        0.46425        8.30157
C         -4.61141        1.99264        9.51270
C         -5.24972        3.03061       10.18280
C         -6.55133        2.87264       10.62113
C         -7.21580        1.67877       10.39273
C         -6.58316        0.64502        9.71962
C         -5.28242        0.79744        9.27702
C         -4.42184        4.37208        5.37804
C         -3.49382        4.17664        4.35961
C         -3.87006        4.35113        3.04127
C         -5.16922        4.71957        2.72766
C         -6.09743        4.91334        3.73635
C         -5.72437        4.73981        5.05718
C         -0.57774        6.79160        8.50503
C          0.54882        6.38224        7.79595
C          1.50464        7.30455        7.41760
C          1.34790        8.63998        7.75389
C          0.23005        9.05023        8.46077
C         -0.73641        8.13263        8.83507
C         -3.09625        6.42888        9.82592
C         -2.75621        6.82805       11.11991
C         -3.67071        7.50265       11.90418
C         -4.93717        7.77588       11.40778
C         -5.27787        7.38378       10.12451
C         -4.36192        6.71431        9.32969
H         -0.35230        3.30455        8.57382
H          0.64856        5.97752       11.36908
H         -2.65971       -0.11140        9.63854
H         -1.64391        0.27085        8.21571
H         -3.92778        1.73722        6.73532
H         -2.28293        2.45318        6.54852
H         -1.69994        4.83920        6.61749
H         -2.79375        6.22532        6.83736
H          2.84143        6.67865       10.39174
H          4.91126        6.82039        9.07845
H          5.67103        4.88257        7.75189
H          4.34045        2.80152        7.75405
H          2.26724        2.67123        9.05483
H          2.44968        2.12586       11.47129
H          2.94453        0.82754       13.50006
H          2.06265        1.56276       15.68308
H          0.69816        3.61483       15.82517
H          0.19122        4.89807       13.79149
H         -1.17942       -1.55868       10.85194
H         -1.68564       -2.77740       12.93037
H         -1.78914       -1.57135       15.07773
H         -1.38527        0.86393       15.14765
H         -0.88390        2.08813       13.07234
H          1.41342       -0.43306       11.55432
H          3.41864       -1.53627       10.65067
H          3.95421       -1.36512        8.25029
H          2.48417       -0.07214        6.74827
H          0.49179        1.05559        7.64775
H         -4.72470        3.96278       10.35128
H         -7.04546        3.67960       11.14043
H         -8.23088        1.55263       10.73661
H         -7.10665       -0.28118        9.53611
H         -4.79514       -0.00649        8.74075
H         -2.47724        3.88863        4.58857
H         -3.14747        4.19912        2.25330
H         -5.45590        4.85399        1.69600
H         -7.11004        5.19853        3.49488
H         -6.44223        4.88533        5.85320
H          0.67903        5.33598        7.55927
H          2.37603        6.98052        6.86982
H          2.09783        9.36060        7.46633
H          0.10656       10.09024        8.72232
H         -1.60861        8.46206        9.38081
H         -1.76315        6.60708       11.49258
H         -3.40083        7.81316       12.90205
H         -5.65601        8.29582       12.02207
H         -6.26146        7.59986        9.73584
H         -4.64472        6.41803        8.32834
