66
CSD_code = YOFHEJ | q = 0 | S = 0 | Stoichiometry = C23H34MoO3P2Si3 | MND = 9
Mo         7.77305        2.12909        8.20621
P          9.34025        4.08483        8.73496
P          7.12048        6.45980        3.71223
Si         9.48299        2.91203       11.62051
Si         5.41833        8.30225        1.82612
Si         8.73673        5.05649        5.89128
O          7.10020       -0.54446        9.56601
O         10.23068        0.63292        7.12572
O          6.33183        1.01438        5.73210
C          8.06703        4.41169        7.55976
C          6.70371        4.19416        7.81292
C          6.22048        3.69608        9.04580
H          5.14435        3.66029        9.20061
C          7.05899        3.32125       10.10672
H          6.57604        2.96997       11.01965
C          8.45360        3.43527       10.10721
C          5.67551        4.59207        6.78900
H          5.97828        4.30020        5.78542
H          5.54860        5.67649        6.79523
H          4.71179        4.13283        7.00563
C          9.36796        4.33156       12.89535
H          9.73803        5.26772       12.48737
H          9.96035        4.09797       13.77348
H          8.34579        4.49613       13.22403
C         11.27059        2.67881       11.01222
H         11.30985        1.97048       10.18812
H         11.91088        2.30277       11.80324
H         11.69471        3.61595       10.66178
C          8.78798        1.29202       12.34142
H          7.79744        1.42639       12.76612
H          9.43169        0.92063       13.13214
H          8.71943        0.51815       11.58143
C          7.77203        6.60252        5.32926
C          7.61304        7.73058        6.12701
C          6.91084        8.85158        5.69609
H          6.83258        9.69053        6.37582
C          6.30491        8.96679        4.45805
H          5.78410        9.89283        4.24443
C          6.31431        7.98950        3.47878
C          8.22237        7.77698        7.49985
H          9.30272        7.88930        7.42278
H          8.02041        6.86176        8.05563
H          7.83305        8.61944        8.06747
C          6.16911        9.84721        0.99427
H          6.06593       10.72725        1.62155
H          5.67743       10.05863        0.04993
H          7.22718        9.71137        0.79228
C          3.56634        8.60157        2.18057
H          3.11317        7.74052        2.66236
H          3.01935        8.79141        1.26248
H          3.41895        9.45705        2.83265
C          5.64208        6.77425        0.71652
H          6.69303        6.57562        0.53098
H          5.15560        6.90967       -0.24405
H          5.21966        5.88827        1.18007
C         10.59132        5.44156        6.13205
H         10.78542        6.05315        7.00799
H         10.98976        5.96223        5.26732
H         11.15020        4.51736        6.24878
C          8.60566        3.66688        4.59407
H          9.05670        2.75020        4.96874
H          9.12593        3.94979        3.68484
H          7.57997        3.43908        4.32109
C          7.35078        0.44891        9.04766
C          9.29638        1.17006        7.52554
C          6.87765        1.40677        6.66232
