94
CSD_code = YOFSOE | q = 0 | S = 0 | Stoichiometry = C41H48CoOPSSi | MND = 8
C          2.62314       -0.64151       13.30565
H          3.64617       -0.60245       13.64434
C          1.50815       -1.06128       14.08812
H          1.56226       -1.44941       15.09405
C          0.38380       -1.15001       13.22890
H         -0.57981       -1.55656       13.48822
C          0.76609       -0.67387       11.97026
H          0.15911       -0.68364       11.07902
C          2.16284       -0.38174       12.00877
H          2.76709       -0.10862       11.15645
C          1.94371        1.86266       14.73260
C          2.55950        2.47410       15.58176
C          4.84804        2.09921       17.52387
H          5.46910        2.55966       18.29943
C          4.15842        0.88418       18.13771
H          3.51152        0.41154       17.40194
H          3.55202        1.16946       18.99362
H          4.89228        0.15055       18.47149
C          5.77163        1.64436       16.39840
H          6.47855        0.89585       16.75635
H          6.33859        2.47988       15.99579
H          5.18677        1.20738       15.59236
C          2.33116        3.79608       18.30023
H          1.88190        2.84874       18.61857
C          3.01475        4.40755       19.52066
H          3.42841        5.38492       19.28473
H          3.82160        3.77140       19.87717
H          2.29975        4.53560       20.33382
C          1.18602        4.68900       17.83489
H          0.45825        4.82795       18.63445
H          0.67843        4.24419       16.98266
H          1.55531        5.66972       17.54459
C          4.44295        4.80430       15.97086
H          5.13525        4.33671       15.26268
C          5.26536        5.68940       16.90321
H          5.85641        6.40397       16.32973
H          5.94595        5.09603       17.50991
H          4.61589        6.25524       17.56734
C          3.48796        5.65617       15.14179
H          2.78674        6.18921       15.77823
H          2.92165        5.03536       14.45289
H          4.04007        6.39340       14.55879
C         -1.02244        0.27974       15.67403
C         -0.19646        0.31357       16.79066
H          0.59416        1.04708       16.84180
C         -0.38137       -0.61104       17.79858
H          0.26805       -0.59782       18.66230
C         -1.39282       -1.56609       17.71916
C         -2.22785       -1.56629       16.60799
H         -3.02341       -2.29477       16.53797
C         -2.05082       -0.64537       15.59247
H         -2.69769       -0.62968       14.72710
C         -1.58859       -2.55520       18.82741
H         -2.13699       -3.42748       18.47991
H         -2.15694       -2.09797       19.63819
H         -0.63109       -2.87682       19.23178
C         -0.19397        3.97586       12.63448
C         -0.04716        4.47350       13.92748
H          0.70691        4.04254       14.57154
C         -0.85440        5.50196       14.37404
H         -0.73374        5.88173       15.37760
C         -1.81986        6.03903       13.53748
H         -2.45707        6.83794       13.88708
C         -1.96727        5.54886       12.25152
H         -2.71708        5.96707       11.59567
C         -1.15816        4.52179       11.79633
H         -1.28275        4.15068       10.78954
C          0.42677        2.25892       10.44308
C         -0.85309        1.73051       10.27185
H         -1.49073        1.59928       11.13707
C         -1.28830        1.37067        9.01071
H         -2.28197        0.96771        8.87850
C         -0.44780        1.51815        7.91713
H         -0.78765        1.23341        6.93208
C          0.83096        2.02051        8.08903
H          1.48956        2.12480        7.23887
C          1.27322        2.38776        9.34894
H          2.27398        2.77487        9.48198
C          2.47550        3.60528       11.90518
C          2.42310        4.86650       11.31823
H          1.47203        5.27128       11.00062
C          3.58328        5.59816       11.14805
H          3.53876        6.57783       10.69504
C          4.80059        5.07932       11.56112
H          5.70399        5.65709       11.43200
C          4.85645        3.82360       12.14133
H          5.80372        3.41834       12.46504
C          3.69767        3.08723       12.31273
H          3.72914        2.11546       12.78301
Si         3.54734        3.35713       16.87163
P          0.94638        2.63977       12.14394
S         -0.81207        1.52152       14.40632
Co         1.09028        0.86243       13.42306
O         -1.81800        1.23294       13.36396
