57
CSD_code = YORHAQ | q = 0 | S = 0 | Stoichiometry = C20H27O6PSi2W | MND = 6
W          3.72051        8.91291        9.45964
P          4.12491        6.54958        9.95689
Si         5.75498        5.22794        7.73309
Si         2.88152        3.88430        8.79812
O          3.06192        5.98651       11.11510
O          2.94323       11.86855        8.79540
O          4.27220        8.50579        6.40059
O          0.80420        7.91663        8.86894
O          2.71950        9.40665       12.39295
O          6.66009        9.91908        9.93003
C          4.05517        5.56967       12.06346
H          3.87143        4.54128       12.38109
H          4.03348        6.21710       12.94382
C          5.30491        5.75639       11.19105
H          5.67371        4.80235       10.81005
C          6.41302        6.59037       11.72642
C          6.14938        7.80774       12.34645
H          5.12682        8.13579       12.46883
C          7.18217        8.60132       12.81191
H          6.95899        9.54440       13.28800
C          8.49585        8.19348       12.65856
H          9.30230        8.81588       13.01529
C          8.77038        6.98384       12.04319
H          9.79281        6.65872       11.92018
C          7.73778        6.18834       11.58197
H          7.96047        5.24768       11.09824
C          4.01114        5.42260        8.53338
H          3.45326        6.02657        7.80798
C          5.52734        5.17926        5.84210
H          4.94433        4.32247        5.52369
H          6.49092        5.12162        5.34641
H          5.02798        6.07186        5.47862
C          6.87383        6.71015        8.16305
H          6.60368        7.58940        7.58543
H          7.91547        6.49142        7.94522
H          6.81186        6.97934        9.21380
C          6.61419        3.61526        8.29431
H          6.97104        3.65907        9.31835
H          7.47816        3.42893        7.66449
H          5.95761        2.75620        8.20880
C          1.10066        4.47967        9.11897
H          1.05212        5.12579        9.98961
H          0.42873        3.64262        9.28598
H          0.71644        5.04243        8.27251
C          2.88294        2.91284        7.15530
H          2.60125        3.54283        6.31855
H          2.16544        2.10089        7.20508
H          3.85106        2.47892        6.93115
C          3.45425        2.69051       10.17651
H          4.52655        2.70783       10.34013
H          3.18220        1.67177        9.91776
H          2.96711        2.92210       11.11776
C          3.24007       10.79127        9.03938
C          4.13363        8.63593        7.53034
C          1.86122        8.28717        9.09304
C          3.14862        9.21348       11.35182
C          5.59631        9.52371        9.79627
