80
CSD_code = YUDVEZ | q = 0 | S = 0 | Stoichiometry = C22H51ClCrN2P2Si | MND = 5
Cr        12.37291       10.50806        2.56101
Si        12.35775       13.15430        1.27973
Cl        12.17106        9.43830        4.52111
P         10.48915        9.66154        1.52207
P         14.12491        9.33935        1.66249
N         12.53590       11.56002        0.43767
N         12.51975       12.49330        2.82540
C         15.80755        9.71916        2.40774
H         16.58269        9.17860        1.85201
C          8.84349        9.80854        2.41264
H          8.02852        9.61556        1.70515
C         11.50828       11.18320       -0.51740
H         11.36670       11.97475       -1.27200
H         11.83705       10.28652       -1.05449
C         10.73216       14.08348        0.83044
H         10.88921       15.15097        0.95227
H          9.91008       13.81097        1.48434
H         10.41576       13.92403       -0.19580
C         14.01540        6.69541        2.64329
H         13.54304        5.73604        2.43879
H         13.38921        7.25060        3.34275
H         14.96709        6.49426        3.12828
C         13.69254       14.36326        0.59650
H         13.43704       15.38531        0.85640
H         13.76905       14.31577       -0.48632
H         14.67973       14.16873        1.00499
C         13.84642       11.37466       -0.16660
H         14.55373       12.00904        0.35594
H         13.83010       11.69837       -1.21966
C         10.32188        8.03417        0.57579
H         11.09554        8.13597       -0.20020
C         15.81293        9.28159        3.87045
H         16.66773        9.70736        4.39462
H         15.86800        8.20166        3.96389
H         14.90321        9.61754        4.36691
C          8.78421        8.80794        3.56333
H          7.89373        8.97742        4.16786
H          9.65991        8.91961        4.20087
H          8.75240        7.78484        3.20095
C         16.07511       11.21845        2.31234
H         16.86890       11.50551        3.00122
H         15.17027       11.76924        2.57627
H         16.38955       11.50309        1.31026
C         10.18574       10.87273        0.16000
H          9.46192       10.50333       -0.56966
H          9.79141       11.77448        0.61794
C         14.34787        9.93393       -0.08070
H         15.39314        9.88695       -0.39464
H         13.76159        9.27795       -0.72976
C         14.22356        7.48384        1.34914
H         13.35079        7.31808        0.70225
C          8.73336       11.23293        2.95383
H          8.09039       11.26145        3.83161
H          8.31730       11.91615        2.21622
H          9.72539       11.58492        3.24406
C         12.59572       13.20717        4.08745
C         11.30661       12.99144        4.89877
H         11.14859       11.92736        5.06819
H         10.45457       13.40692        4.36440
H         11.38174       13.48513        5.86516
C         13.77760       12.67192        4.91308
H         13.69039       11.59281        5.02569
H         13.78027       13.12330        5.90267
H         14.72009       12.90710        4.42446
C         12.78968       14.71450        3.88312
H         13.70430       14.90498        3.32988
H         12.85158       15.21656        4.84597
H         11.95471       15.12898        3.32530
C         10.70341        6.86535        1.48619
H         11.18137        6.06660        0.92097
H          9.82236        6.44386        1.96307
H         11.38252        7.20217        2.26913
C          8.98676        7.76079       -0.11011
H          9.06834        6.85274       -0.70695
H          8.69221        8.56954       -0.77485
H          8.19747        7.60847        0.62169
C         15.46110        6.98462        0.60766
H         15.33434        5.92898        0.36912
H         16.35304        7.07868        1.22208
H         15.61906        7.52361       -0.32330
