71
CSD_code = ZACFER | q = 0 | S = 0 | Stoichiometry = C23H37F3O4SSi2Ti | MND = 12
C         -0.86961       -1.02530        3.81204
C          3.75959       -0.81770        1.56553
C          2.72255        0.00260        1.06690
C          3.11216        1.35688        1.21309
C          4.39056        1.37732        1.83260
C          4.81886        0.01056        2.03113
C          3.73805       -2.31423        1.44343
H          2.85413       -2.73023        1.93162
H          4.62374       -2.76580        1.87668
H          3.69416       -2.59537        0.38884
C          1.48881       -0.47533        0.36658
H          0.66495        0.21607        0.52811
H          1.18764       -1.45793        0.72593
H          1.67515       -0.54638       -0.70843
C          2.32407        2.52962        0.71482
H          2.28270        2.51436       -0.37632
H          2.77336        3.46818        1.03221
H          1.30455        2.48220        1.09846
C          5.22195        2.61757        2.01284
H          5.67885        2.90739        1.06356
H          6.01450        2.45418        2.73884
H          4.59568        3.44340        2.35570
C          7.82549        0.53433        1.46981
H          8.78876        0.03452        1.47278
H          7.99284        1.55407        1.79744
H          7.48171        0.57427        0.43984
C          7.10874       -2.23793        2.32851
H          6.97451       -2.55806        1.29963
H          6.58807       -2.94067        2.97101
H          8.16590       -2.32905        2.55749
C          7.47464        1.77841        5.26686
H          7.40423        2.04655        6.31576
H          7.22643        2.65882        4.68541
H          8.51387        1.53881        5.06448
C          6.97099       -1.03963        6.16472
H          8.04166       -0.96757        6.32770
H          6.75719       -2.05917        5.86341
H          6.47967       -0.87158        7.11940
C          4.50827        0.51336        5.01733
C          3.70934       -0.67412        5.36730
C          2.81056       -0.33049        6.36437
C          2.99519        1.04587        6.69766
C          4.00250        1.55664        5.91490
C          3.96709       -2.08968        4.91597
H          4.28840       -2.69670        5.76622
H          4.74511       -2.12718        4.15583
H          3.05691       -2.54440        4.51479
C          1.81053       -1.21864        7.02894
H          1.73006       -2.17561        6.51908
H          0.83221       -0.73997        7.02334
H          2.09276       -1.39928        8.06819
C          2.15216        1.76599        7.70055
H          1.12519        1.81876        7.33617
H          2.51931        2.77405        7.87576
H          2.14627        1.23120        8.64991
C          4.47763        2.97903        5.90232
H          3.65571        3.66242        6.11090
H          4.89173        3.22876        4.92704
H          5.24489        3.14220        6.66084
F         -2.11840       -0.59319        3.98920
F         -0.59362       -1.89227        4.79195
F         -0.83151       -1.70531        2.65950
O          2.41449        2.10035        3.74352
O          1.59739       -0.56177        3.56847
O          0.09701        1.12584        2.63671
O          0.37687        0.93743        5.06619
S          0.43550        0.33156        3.77277
Si         6.38529        0.24927        4.86227
Si         6.57700       -0.40976        2.58893
Ti         3.09565        0.57160        3.43291
H          1.89105        2.44006        4.47207
