56
CSD_code = ZAFSII | q = 0 | S = 0 | Stoichiometry = C17H34N2OSiW | MND = 9
W         10.66613       12.68269       10.90800
Si        14.27283       13.19911       11.07367
O         12.24830       10.21762       10.61528
N         11.67886       11.26432       10.66861
N         11.40811       14.13159        9.15683
C          9.75859       12.04363        8.96584
C         10.64873       12.34502        7.76467
C         10.91196       13.84297        7.80506
C         12.53725       13.74235       11.61209
C         14.41404       12.71358        9.21843
C         14.87107       11.71625       12.11296
C         15.51295       14.64337       11.31882
C          9.09938       11.76820       12.35623
C          8.32348       12.55405       11.45465
C          8.74039       13.90896       11.57958
C          9.70474       13.98646       12.62086
C          9.94153       12.65725       13.10185
C          8.87399       10.31980       12.68133
C          7.10648       12.06193       10.73110
C          8.08797       15.07987       10.89987
C         10.15524       15.25424       13.28731
C         10.69050       12.25837       14.34151
H         11.26663       15.11316        9.39297
H         12.41234       13.95842        9.17347
H          8.80862       12.56054        8.77842
H          9.53849       10.97068        8.98317
H         11.59271       11.79974        7.84109
H         10.17120       12.06749        6.81835
H         11.62723       14.16313        7.03642
H          9.97149       14.37985        7.64547
H         12.51711       13.56551       12.69025
H         12.44256       14.83121       11.49108
H         15.36067       12.21046        9.04588
H         14.38810       13.56500        8.54105
H         13.62914       12.01696        8.93837
H         15.89787       11.45353       11.87644
H         14.82236       11.92770       13.17697
H         14.25371       10.84609       11.91829
H         16.51497       14.35403       11.02074
H         15.55742       14.94977       12.35858
H         15.23837       15.51634       10.73418
H          8.17493       10.22373       13.51555
H          9.80966        9.83853       12.96204
H          8.46040        9.78972       11.82582
H          6.30503       11.89828       11.45527
H          6.75318       12.78542       10.00000
H          7.29415       11.11796       10.22249
H          7.16997       15.35806       11.42291
H          8.74343       15.95021       10.89411
H          7.82546       14.84366        9.86853
H          9.43075       15.53967       14.05410
H         11.12328       15.13474       13.76943
H         10.23050       16.07766       12.57784
H          9.98475       11.99303       15.13198
H         11.31624       13.06917       14.70793
H         11.32585       11.39358       14.15022
