65
CSD_code = ZELDUR | q = 0 | S = 0 | Stoichiometry = C26H32Cl2OS2SiTi | MND = 8
Ti         5.02487        2.28717       22.18708
Cl         6.42898        2.73251       23.79995
Cl         6.48114        2.59506       20.59321
S          5.24855       -0.48315       19.89353
S          2.18904        1.76404       24.14493
Si         2.24237        1.97183       20.29743
O          4.04060        3.61286       22.00648
C          3.28801        0.99275       21.52243
C          3.25322        1.08910       22.94429
C          4.39280        0.47269       23.54707
C          5.18370       -0.05170       22.47555
C          4.48454        0.25217       21.26814
C          3.26301        1.20654       25.43162
C          4.35450        0.54939       24.96950
H          5.11552        0.14233       25.61431
C          6.35175       -0.83128       22.23579
H          7.02934       -1.15424       23.00919
C          6.52318       -1.12760       20.92274
C          1.88869        3.66992       21.08474
C          2.89788        4.27277       21.85828
C          2.69542        5.52379       22.47724
C          1.47821        6.15082       22.26362
H          1.28727        7.11351       22.70885
C          0.46897        5.58434       21.49295
C          0.68529        4.34048       20.92414
H         -0.09611        3.87915       20.33996
C         -0.81866        6.31912       21.27304
H         -1.08456        6.90795       22.14789
H         -1.62697        5.62587       21.05398
H         -0.71897        7.00049       20.42735
C          3.77187        6.10490       23.38557
C          3.91963        5.17154       24.59852
H          2.97285        5.10316       25.13278
H          4.67764        5.55878       25.27607
H          4.22022        4.16594       24.29214
C          3.40601        7.50024       23.90411
H          2.50069        7.47347       24.50573
H          3.27154        8.20069       23.08319
H          4.21257        7.86992       24.53336
C          5.10773        6.22434       22.63337
H          4.98019        6.83446       21.74038
H          5.50243        5.24834       22.33451
H          5.84680        6.70047       23.27470
C          0.62137        0.99733       19.99447
H          0.83410       -0.07191       20.02635
H         -0.08581        1.19507       20.80091
C         -0.03944        1.31639       18.65984
H         -0.28283        2.37281       18.58650
H         -0.95989        0.74765       18.54011
H          0.62390        1.06408       17.83756
C          3.32124        2.23958       18.73206
H          4.36127        2.39903       19.03730
H          3.31279        1.33993       18.11448
C          2.88280        3.43360       17.88550
H          2.92426        4.34949       18.47096
H          1.86539        3.30584       17.52546
H          3.53783        3.54872       17.02435
C          7.63695       -1.88204       20.29076
H          8.29171       -2.29435       21.05470
H          8.22050       -1.22292       19.64745
H          7.25149       -2.69389       19.67511
C          2.91039        1.52159       26.84083
H          3.00474        2.59278       27.02257
H          3.57667        0.99417       27.51906
H          1.88160        1.23452       27.05380
