42
CSD_code = ZEPQAM | q = 0 | S = 0 | Stoichiometry = C15H22Cl2Si2Ti | MND = 12
Ti         0.75531       14.70003        9.10823
Cl         1.94043       13.53396       10.59258
Cl        -1.11963       13.61905        9.60157
Si         1.74166       11.24522        8.02174
Si         2.43995       17.05368        7.53201
C          2.43323       14.12040        7.67726
H          3.46185       13.99833        7.99581
C          1.88456       15.29509        7.11213
C          0.54598       14.98251        6.75087
H         -0.12988       15.64182        6.21992
C          0.31239       13.62634        7.02317
H         -0.57933       13.07124        6.76026
C          1.47449       13.07249        7.61596
C          1.70853       16.48553       10.33190
H          2.71785       16.47214       10.72515
C          0.54353       16.17512       11.06823
H          0.51180       15.85777       12.10292
C         -0.56639       16.42815       10.24729
H         -1.60473       16.35665       10.54371
C         -0.09115       16.86449        8.99574
H         -0.71349       17.24742        8.19641
C          1.32765       16.96548        9.05872
C          0.46025       10.60154        9.27763
H          0.55586       11.11241       10.23210
H          0.58597        9.53747        9.45430
H         -0.55484       10.76167        8.92333
C          3.53238       11.00625        8.63949
H          3.71490       11.57614        9.54508
H          4.25859       11.31500        7.89303
H          3.72008        9.96120        8.86319
C          1.51863       10.31168        6.36452
H          1.70287        9.25175        6.50151
H          2.20694       10.66941        5.60530
H          0.51218       10.42101        5.97334
C          4.28804       17.15314        7.97112
H          4.90218       17.01504        7.08763
H          4.57065       16.39545        8.69606
H          4.53128       18.12350        8.39074
C          1.91136       18.36329        6.25753
H          2.13157       19.36099        6.62183
H          0.84961       18.31801        6.03896
H          2.44781       18.22724        5.32455
