81
CSD_code = ZIGKOS | q = 0 | S = 0 | Stoichiometry = C32H43N4ScSi | MND = 5
Sc        -0.90548        3.34040       10.50080
N         -1.91612        3.54550        8.63870
N          0.33573        2.39853        7.70127
N         -3.11770        3.08562       11.92321
N          1.66232        3.18414       11.20762
Si        -1.43074        2.50389        7.37287
C         -1.59844        3.21547        5.59948
H         -2.21119        2.57594        4.97139
H         -0.63429        3.32509        5.11188
H         -2.07504        4.19097        5.62238
C         -2.30498        0.79858        7.31516
H         -2.18631        0.22078        8.22444
H         -1.96506        0.19121        6.48364
H         -3.37014        0.95844        7.17765
C         -3.04103        4.33272        8.54375
C         -4.15266        4.00826        7.75165
H         -4.13638        3.09071        7.18556
C         -5.25723        4.83283        7.69219
H         -6.09836        4.54828        7.07535
C         -5.29943        6.01727        8.41005
H         -6.16587        6.65886        8.36012
C         -4.20484        6.36964        9.18350
H         -4.21326        7.29992        9.73535
C         -3.09726        5.54814        9.24920
H         -2.22843        5.84633        9.83731
C          1.14664        3.50810        7.53040
C          2.43768        3.10175        7.34550
H          3.28896        3.73604        7.18171
C          2.44329        1.69009        7.40347
H          3.29962        1.05032        7.30540
C          1.15347        1.29089        7.61354
C          0.65621        4.91472        7.59233
H          1.49756        5.58743        7.43702
H          0.20336        5.12887        8.57023
H         -0.09414        5.11340        6.83037
C          0.68071       -0.10923        7.78724
H          1.54328       -0.75702        7.93008
H          0.13706       -0.46010        6.91195
H          0.03081       -0.19340        8.65545
C         -1.17335        1.18522       11.08293
H         -2.07533        0.90869       10.51508
H         -0.45052        0.36842       10.96180
C         -1.48520        1.35669       12.50992
C         -0.79125        0.64947       13.50002
H         -0.01860       -0.04569       13.19726
C         -1.06416        0.81033       14.84237
H         -0.50641        0.24859       15.57709
C         -2.06223        1.67928       15.24295
H         -2.29733        1.80134       16.28915
C         -2.76053        2.40487       14.29023
H         -3.52607        3.08759       14.62544
C         -2.47831        2.27115       12.94182
C         -3.62169        4.36262       12.43513
H         -4.51742        4.23497       13.05815
H         -3.89240        4.99312       11.58708
H         -2.84941        4.85264       13.02390
C         -4.25407        2.37469       11.32360
H         -3.97088        1.36725       11.02955
H         -4.59794        2.91807       10.44227
H         -5.08561        2.29472       12.03794
C         -0.30000        5.18915       11.64563
H          0.46225        5.73085       11.06197
H         -0.99055        5.95153       12.03184
C          0.32143        4.48716       12.78473
C         -0.07462        4.73510       14.10414
H         -0.84225        5.47618       14.28644
C          0.48722        4.07002       15.17433
H          0.15397        4.28664       16.17848
C          1.48778        3.14034       14.95985
H          1.94762        2.62689       15.79024
C          1.89820        2.86390       13.66528
H          2.67388        2.12828       13.51661
C          1.32096        3.50494       12.58297
C          2.68831        4.11381       10.71757
H          2.38539        5.14579       10.87472
H          2.84560        3.94313        9.65264
H          3.63835        3.95887       11.24749
C          2.19102        1.82615       11.03930
H          3.22681        1.74099       11.39464
H          2.17900        1.57660        9.97676
H          1.57425        1.11880       11.58841
