23
CSD_code = ZIMHUY | q = 0 | S = 0 | Stoichiometry = C6H8Cl6FeSi2 | MND = 10
Fe         8.95707        2.77877        1.13168
Cl         6.13654        4.42042        0.15135
Cl         7.56368        2.77882       -2.24453
Cl        11.87421        1.13719        0.49372
Cl        10.74240        2.77871       -2.05478
Si         7.25513        2.77879       -0.25972
Si        10.81235        2.77876       -0.04737
C         10.26169        2.77877        2.83447
C          9.56565        3.98512        2.71132
C          8.16487        3.98511        2.62772
C          7.45912        2.77877        2.66719
H          9.00859        1.64881        0.26811
H         11.33238        2.77877        2.96695
H         10.10050        4.91987        2.70435
H          7.63456        4.91981        2.55714
H          6.38026        2.77877        2.67145
Cl         6.13657        1.13713        0.15129
Cl        11.87415        4.42040        0.49364
C          9.56565        1.57243        2.71132
C          8.16487        1.57242        2.62771
H          9.00859        3.90874        0.26811
H          7.63456        0.63772        2.55714
H         10.10050        0.63768        2.70435
