85
CSD_code = ZISBAE | q = 0 | S = 0 | Stoichiometry = C35H44IrNP2Si2 | MND = 7
Ir         2.82049        5.01682        9.05660
P          2.20909        5.66650        6.91521
P          2.93976        2.72684        9.06554
Si         5.26194        5.95933        6.94558
Si         5.86505        3.48327        8.70368
N          4.92982        4.78846        8.13555
C          3.65723        6.02678        5.86327
C          4.62543        2.26636        9.55234
C          5.64901        7.72102        7.59572
C          6.67599        5.55211        5.73685
C          6.77945        2.41808        7.40662
C          7.17666        3.97442       10.00966
C          1.14656        4.64412        5.82709
C          1.03668        4.90699        4.46661
C          0.24972        4.10027        3.66504
C         -0.43786        3.03005        4.21411
C         -0.35002        2.77607        5.57265
C          0.43699        3.58335        6.37244
C          1.25069        7.21881        6.85022
C          1.89641        8.44979        6.90344
C          1.16800        9.62466        6.93477
C         -0.21660        9.58489        6.92075
C         -0.86805        8.36353        6.87369
C         -0.14064        7.18780        6.84194
C          2.75928        1.80128        7.50072
C          3.32084        2.37558        6.36510
C          3.22075        1.74686        5.13966
C          2.54875        0.53905        5.03479
C          1.99254       -0.03963        6.16218
C          2.09658        0.58538        7.39366
C          1.84744        1.76654       10.17684
C          2.32271        0.83934       11.09669
C          1.44557        0.14912       11.91629
C          0.08299        0.37492       11.82813
C         -0.40158        1.29706       10.91407
C          0.47445        1.98767       10.09864
C          0.91370        5.42440        9.85804
C          1.23044        6.84466       10.33154
C          2.67542        7.07957        9.91926
C          3.71709        6.37660       10.50975
C          3.48504        5.10968       11.10298
H          3.71684        5.23518        5.11674
H          3.51895        6.97207        5.34091
H          4.69173        2.37814       10.63266
H          4.81525        1.22550        9.28965
H          6.58328        7.70728        8.14839
H          5.76472        8.43179        6.78168
H          4.88407        8.10212        8.26347
H          6.52411        4.60140        5.23979
H          6.78441        6.31581        4.97386
H          7.61239        5.49444        6.27883
H          7.26430        1.56394        7.86989
H          6.11000        2.04262        6.63950
H          7.55016        3.00221        6.91903
H          7.66514        3.10717       10.44308
H          7.94308        4.58134        9.53977
H          6.75505        4.55818       10.82127
H          1.56570        5.74543        4.03557
H          0.17144        4.30562        2.60699
H         -1.04479        2.39792        3.58267
H         -0.88937        1.94663        6.00600
H          0.52973        3.39988        7.43410
H          2.97576        8.48511        6.92248
H          1.68047       10.57552        6.97358
H         -0.78532       10.50275        6.94756
H         -1.94794        8.32770        6.86354
H         -0.65226        6.23635        6.80271
H          3.83678        3.31880        6.47356
H          3.65834        2.19840        4.26088
H          2.45954        0.04966        4.07599
H          1.47234       -0.98351        6.08328
H          1.65712        0.12734        8.26843
H          3.38166        0.64596       11.17499
H          1.82868       -0.56966       12.62648
H         -0.59871       -0.16421       12.46940
H         -1.46412        1.47859       10.84133
H          0.10119        2.71324        9.39193
H          0.10704        5.43819        9.12114
H          0.60214        4.77754       10.68138
H          0.58778        7.58356        9.84991
H          1.12086        6.95636       11.41496
H          2.88912        8.03555        9.45259
H          4.73813        6.69163       10.32162
H          4.36366        4.58883       11.46465
H          2.63865        4.99569       11.77286
