78
CSD_code = ZIYCUF | q = 0 | S = 0 | Stoichiometry = C26H46Cl2Si3Zr | MND = 12
Zr         5.26417        3.23596       15.72552
Cl         5.41276        2.30208       13.57760
Cl         2.95501        3.58143       15.46962
Si         7.42661        3.82827       18.14212
C          9.20523        3.15412       18.27980
C          7.14839        4.91748       19.68267
C          6.20170        2.42130       17.80620
C          4.77052        2.42963       17.93679
Si         3.62061        3.21344       19.20555
C          1.92128        2.34603       19.08159
C          4.32239        2.89641       20.95571
C          3.24602        5.07191       18.95202
C          4.28145        1.37436       17.11719
C          5.35030        0.73354       16.46029
C          5.21773       -0.58025       15.71502
C          6.39729       -0.82757       14.77081
C          3.91497       -0.59670       14.90272
C          5.17694       -1.70110       16.76832
C          6.52995        1.40796       16.86087
C          6.94401        4.76557       16.56701
C          7.27130        4.45293       15.20296
Si         8.83670        3.78149       14.39981
C          8.74710        4.15114       12.52613
C         10.34552        4.70990       15.11932
C          9.08947        1.88908       14.51579
C          6.30393        5.10970       14.39228
C          5.37250        5.78992       15.20110
C          4.36659        6.79236       14.66978
C          5.12513        8.10478       14.40587
C          3.75778        6.28271       13.35566
C          3.23950        7.06151       15.67039
C          5.75107        5.54316       16.54380
H          9.56000        2.69987       17.36354
H          9.89438        3.94844       18.54450
H          9.25619        2.40641       19.06477
H          6.10991        5.18291       19.83397
H          7.49455        4.40988       20.57622
H          7.71806        5.83673       19.59139
H          1.23369        2.74393       19.82168
H          1.47495        2.50553       18.10430
H          1.99362        1.27605       19.25031
H          3.75549        3.44773       21.69818
H          4.25845        1.84372       21.21057
H          5.36151        3.18916       21.04562
H          2.36558        5.34662       19.52517
H          4.04820        5.72760       19.27528
H          3.02867        5.27416       17.90690
H          3.24974        1.05253       17.09282
H          6.27846       -1.79051       14.27822
H          6.43378       -0.05645       14.00452
H          7.33863       -0.84466       15.31514
H          3.88074       -1.48233       14.27181
H          3.04445       -0.61644       15.55429
H          3.85214        0.28431       14.26316
H          5.05174       -2.66768       16.28536
H          6.10153       -1.71576       17.34126
H          4.35058       -1.54771       17.45848
H          7.53885        1.09722       16.63242
H          9.64719        3.80848       12.02487
H          7.90545        3.63808       12.06983
H          8.64782        5.21267       12.32165
H         11.26972        4.25156       14.78415
H         10.35421        5.74333       14.78901
H         10.35066        4.71580       16.20265
H          9.83276        1.57687       13.78832
H          9.44013        1.55342       15.48651
H          8.16544        1.36924       14.27865
H          6.34914        5.16046       13.31343
H          4.45176        8.85294       13.99348
H          5.54830        8.49004       15.33099
H          5.93731        7.94217       13.70115
H          2.94951        6.93918       13.04052
H          4.49930        6.25970       12.56046
H          3.35452        5.27792       13.48557
H          2.55746        7.80598       15.26468
H          2.67579        6.14998       15.85598
H          3.63173        7.44435       16.60971
H          5.31748        6.01261       17.41464
