88
CSD_code = ZOLTOJ | q = 0 | S = 0 | Stoichiometry = C33H48CrO5Si | MND = 9
Cr         0.71062        2.80077       26.60966
Si        -0.84118        6.35849       27.74805
O          0.82107        1.12739       29.06232
O         -0.33621        0.21673       25.57854
O         -2.14752        2.73257       27.42431
O          2.96934        1.86224       24.35565
O          0.69570        6.04373       27.22055
C          1.28209        4.99999       26.57780
C          2.35084        4.28414       27.14703
C          2.91264        3.21483       26.39051
C          2.45192        2.84977       25.13243
C          1.48206        3.68784       24.47680
C          1.11334        3.47972       23.13335
C          0.27880        4.35825       22.49316
C         -0.17410        5.50260       23.15890
C          0.15630        5.72209       24.47104
C          0.94561        4.80046       25.18748
C          3.04151        4.73180       28.43630
C          4.16699        3.78356       28.86988
C          2.05535        4.82096       29.60456
C          3.65327        6.11613       28.16358
C          3.87823        0.90520       24.89521
C          4.48472        0.14712       23.70370
C          5.43733       -0.92422       24.23731
C          4.71228       -1.89310       25.16666
C          4.10030       -1.14742       26.35161
C          3.15598       -0.06629       25.83032
C          3.35135       -2.09537       27.28244
C          5.13062        1.10483       22.68018
C          5.32728        0.41331       21.33189
C          6.45470        1.70532       23.14964
C         -1.26983        5.36839       29.32133
C         -2.23269        5.98945       26.49201
C         -0.71293        8.24903       28.09707
C          0.30868        8.55057       29.19588
C         -2.08049        8.75026       28.55990
C         -0.30635        9.02185       26.83928
C          0.81894        1.81161       28.12449
C          0.08804        1.23212       25.93522
C         -1.03999        2.86489       27.10810
H          3.75806        2.68584       26.80012
H          1.52114        2.62174       22.62157
H         -0.00300        4.18871       21.46541
H         -0.77733        6.22438       22.62943
H         -0.15320        6.62716       24.96622
H          4.59101        4.14656       29.80363
H          4.97585        3.74754       28.14245
H          3.78437        2.77998       29.04634
H          1.34671        5.62313       29.45092
H          2.59715        5.01816       30.52716
H          1.51547        3.88257       29.71343
H          4.13767        6.49468       29.06073
H          2.88322        6.82075       27.86228
H          4.39597        6.05647       27.36904
H          4.68575        1.42001       25.43505
H          3.65198       -0.35007       23.19466
H          5.87004       -1.47596       23.40232
H          6.25161       -0.45039       24.78855
H          5.41291       -2.64939       25.52657
H          3.91985       -2.40559       24.61749
H          4.90891       -0.66674       26.91584
H          2.33966       -0.53236       25.27541
H          2.70998        0.47466       26.66899
H          4.02298       -2.85412       27.67732
H          2.54578       -2.59183       26.74710
H          2.91710       -1.54786       28.11523
H          4.42017        1.92546       22.53300
H          6.04951       -0.39561       21.41037
H          5.69738        1.12453       20.59684
H          4.38848        0.00321       20.96732
H          6.78293        2.46456       22.44281
H          7.22891        0.94445       23.20824
H          6.35448        2.17751       24.12397
H         -2.34489        5.33699       29.46324
H         -0.84068        5.78849       30.22552
H         -0.92903        4.33973       29.24065
H         -3.17911        5.87912       27.01135
H         -2.05180        5.05787       25.96316
H         -2.36671        6.76959       25.74839
H          0.03278        8.06325       30.12764
H          0.35996        9.62363       29.37936
H          1.29954        8.20960       28.90783
H         -2.39296        8.23223       29.46258
H         -2.83431        8.58347       27.79527
H         -2.04316        9.81774       28.77451
H          0.66164        8.68368       26.47589
H         -0.23322       10.08730       27.05612
H         -1.04048        8.89206       26.04692
