68
CSD_code = ZONCUA | q = 0 | S = 0 | Stoichiometry = C27H35O3PSiW | MND = 9
W          1.74140        2.91715        2.83685
P          0.83952        5.02517        3.66462
Si         4.19872        2.62795        2.35583
O          2.99074        3.57002        5.61781
O          2.43513        5.16796        0.79882
O          4.29007        2.42890        0.71290
C          2.59459        3.35592        4.54562
C          2.25266        4.35940        1.60892
C          1.63223        0.70441        2.01944
C          0.81874        1.54568        1.19901
C         -0.23081        2.06612        1.99736
C         -0.05870        1.56159        3.33453
C          1.09075        0.72747        3.34245
C          2.61171       -0.29661        1.48837
C          0.96238        1.67440       -0.28831
C         -1.44952        2.76048        1.46397
C         -1.06127        1.62731        4.45006
C          1.50202       -0.16865        4.47368
C         -0.06031        5.05277        5.26712
C         -0.34463        5.97548        2.62784
C          2.08930        6.32917        3.97688
C          5.09222        1.13748        3.15798
C          4.91492        0.81622        4.49977
C          5.56794       -0.25818        5.07763
C          6.41740       -1.04446        4.31782
C          6.60764       -0.74324        2.98026
C          5.95240        0.33588        2.41448
C          5.31825        4.11350        2.81288
C          5.87945        4.24574        4.07914
C          6.61548        5.36385        4.42676
C          6.80926        6.38124        3.50759
C          6.26693        6.26592        2.23923
C          5.53138        5.14408        1.90171
H          5.14188        2.51554        0.28741
H          4.24919        1.41554        5.10212
H          5.41218       -0.48627        6.12315
H          6.92629       -1.88661        4.76482
H          7.26814       -1.35168        2.37805
H          6.10545        0.55451        1.36727
H          5.74117        3.45576        4.80164
H          7.04099        5.44406        5.41743
H          7.38290        7.25694        3.77694
H          6.41733        7.05303        1.51313
H          5.10743        5.06735        0.91088
H          3.29453       -0.64004        2.26126
H          2.06528       -1.16183        1.10411
H          3.19818        0.12485        0.67660
H          2.00921        1.80953       -0.55735
H          0.59418        0.77274       -0.78319
H          0.39817        2.52497       -0.66639
H         -1.18563        3.52413        0.73283
H         -2.10012        2.03408        0.97065
H         -2.02220        3.22930        2.26253
H         -1.78280        2.42710        4.29245
H         -1.61363        0.68594        4.50499
H         -0.57469        1.78485        5.41264
H          1.34458        0.31457        5.43741
H          0.90942       -1.08686        4.45630
H          2.55302       -0.44053        4.39500
H         -0.31612        6.07579        5.54313
H         -0.97126        4.46376        5.18617
H          0.57609        4.61722        6.03503
H         -0.55226        6.94427        3.08239
H          0.09081        6.12331        1.64155
H         -1.27472        5.42154        2.52586
H          1.60544        7.23438        4.34558
H          2.81109        5.97419        4.71069
H          2.62150        6.54712        3.05203
