65
CSD_code = ZOPXUZ | q = 0 | S = 0 | Stoichiometry = C23H33FeN3O4Si | MND = 5
Fe        -1.64602        1.13931        7.45224
Si        -1.74250       -1.10155        7.45976
O         -1.54460        4.03840        7.31770
N         -3.33013       -2.05304        7.48529
C         -3.07496       -2.60979        6.30321
O         -0.70104        1.01177       10.23917
N         -1.88038       -2.13303        5.94479
C         -3.06926       -4.40718        4.68852
H         -3.05928       -4.01608        3.66646
H         -3.57435       -5.37476        4.69134
H         -2.04329       -4.54695        5.01777
O          0.40487        0.94421        5.35385
N         -3.76527       -3.53621        5.61036
C         -5.20271       -3.51267        5.45962
H         -5.67794       -4.34379        5.98927
H         -5.45068       -3.60007        4.39974
H         -5.59852       -2.56992        5.82315
O         -4.53280        1.25892        6.91581
C         -4.22661       -2.39804        8.57527
C         -4.21946       -3.91081        8.82222
H         -4.57239       -4.45858        7.95414
H         -4.86259       -4.14791        9.66581
H         -3.20863       -4.24178        9.04954
C         -5.65778       -1.88258        8.34432
H         -5.63036       -0.92998        7.82082
H         -6.14576       -1.72411        9.30254
H         -6.26276       -2.58750        7.78263
C         -3.67871       -1.69401        9.82044
H         -2.66363       -2.01529       10.03135
H         -4.30000       -1.92679       10.68142
H         -3.67375       -0.61775        9.66978
C         -1.30220       -2.04814        4.66469
C         -0.03218       -2.61102        4.48023
C          0.59679       -2.46540        3.25347
H          1.58109       -2.88075        3.10406
C         -0.01890       -1.78857        2.21895
H          0.48007       -1.68182        1.26731
C         -1.26966       -1.23758        2.40963
H         -1.73748       -0.69910        1.59968
C         -1.92878       -1.34356        3.62784
C         -3.27065       -0.66745        3.79093
H         -3.65057       -0.86428        4.79849
C         -4.29027       -1.19238        2.77492
H         -5.27895       -0.79925        3.00210
H         -4.33812       -2.27915        2.78598
H         -4.02574       -0.87935        1.76796
C         -3.12605        0.84877        3.63877
H         -2.78672        1.10968        2.63946
H         -2.40824        1.23553        4.36025
H         -4.08410        1.33293        3.81535
C          0.65646       -3.34992        5.60336
H         -0.07814       -3.53580        6.39279
C          1.21414       -4.70110        5.14876
H          0.44895       -5.28625        4.64139
H          1.56439       -5.26454        6.01090
H          2.05245       -4.57362        4.46940
C          1.76909       -2.47590        6.18592
H          2.51950       -2.26118        5.42872
H          2.25113       -2.98220        7.01929
H          1.36031       -1.53248        6.54132
C         -0.40055        1.01358        6.17697
C         -1.06910        1.06887        9.14833
C         -1.57454        2.89042        7.38252
C         -3.39682        1.20798        7.12415
H         -0.92135       -2.10000        8.21751
