61
CSD_code = ZOVBAN | q = 0 | S = 0 | Stoichiometry = C26H30O3RuSi | MND = 8
Ru         1.10775        1.31776        4.20891
Si         1.84670        0.13813        2.25083
O          1.22240        3.89868        2.69007
O          3.76130        1.77154        5.51965
O          0.44876       -0.23409        1.43193
H          0.50934       -0.39969        0.49207
C          1.22142        2.88839        3.24101
C          2.79028        1.57484        4.92808
C         -1.05129        0.78490        4.13667
C         -0.35317       -0.38653        4.58939
C          0.32073       -0.05419        5.80137
C         -0.02874        1.30148        6.14824
C         -0.88631        1.80574        5.13212
C          2.71352       -1.54206        2.64133
C          3.13724       -1.78797        3.94404
C          3.72930       -2.98128        4.31245
C          3.91264       -3.96968        3.36160
C          3.51536       -3.73887        2.05755
C          2.92360       -2.53819        1.68321
C          2.52428       -2.34214        0.25113
H          2.79470       -1.34547       -0.09056
H          1.44730       -2.46705        0.14250
H          3.01360       -3.07560       -0.38590
C          2.92788        1.07263        0.95896
C          2.28621        1.67100       -0.12204
C          2.97979        2.37227       -1.09074
C          4.35387        2.48978       -0.99076
C          5.00846        1.91528        0.08381
C          4.31454        1.21600        1.06244
C          5.06515        0.62565        2.21433
H          6.10075        0.95675        2.20991
H          5.04796       -0.46140        2.16475
H          4.60282        0.92202        3.15347
C         -2.10638        0.78680        3.06684
H         -3.02954        0.35288        3.45899
H         -1.78366        0.20013        2.21042
H         -2.32107        1.79800        2.72689
C         -0.54078       -1.77269        4.05101
H         -0.75953       -1.74856        2.98767
H         -1.37858       -2.24638        4.56887
H          0.34687       -2.38403        4.20059
C          0.92400       -1.04183        6.76219
H          0.16690       -1.34740        7.48836
H          1.75990       -0.60981        7.31069
H          1.27588       -1.93070        6.24370
C          0.23391        1.94132        7.47957
H          1.19138        1.62451        7.88905
H         -0.54915        1.65129        8.18464
H          0.23745        3.02700        7.40485
C         -1.65557        3.09175        5.19722
H         -2.60924        2.91836        5.70171
H         -1.86479        3.48174        4.20282
H         -1.11140        3.85251        5.75373
H          3.00709       -1.00805        4.68568
H          4.04841       -3.13986        5.33287
H          4.36985       -4.91077        3.63122
H          3.67194       -4.50604        1.31135
H          1.21045        1.59830       -0.20205
H          2.45081        2.82701       -1.91595
H          4.91241        3.03229       -1.73979
H          6.08176        2.01710        0.16763
