95
CSD_code = ZUKBIQ | q = 0 | S = 0 | Stoichiometry = C35H50N6Si3Zr | MND = 7
C         -2.75688        2.50138       14.02795
C         -3.11942        2.90734       15.11933
C         -3.56254        3.38019       16.38488
C         -4.81604        3.98547       16.50668
C         -5.25374        4.44113       17.73456
C         -4.45413        4.30091       18.85802
C         -3.21140        3.69756       18.74701
C         -2.76538        3.23874       17.52288
C         -3.60632        2.91493       10.08074
C         -4.31408        3.59479        9.05935
C         -4.92428        2.88852        8.05188
C         -4.82413        1.48668        8.06234
C         -4.11972        0.88210        9.07844
C         -5.69190        3.57444        6.96443
C         -0.83833        4.84275       12.37212
C         -3.78402        5.86344       12.70304
C         -2.25781        6.25454       10.00075
C          0.32691        1.72401       11.46652
C          1.71006        1.77055       11.16406
C          2.13174        2.10386        9.90035
C          1.16106        2.39343        8.92595
C         -0.16789        2.32986        9.27787
C          3.58577        2.17055        9.54880
C          0.73482        2.13780       15.36461
C         -1.02923       -0.37570       14.69328
C          1.97018       -0.34518       13.92201
C         -3.06074       -0.94073       11.96707
C         -3.45865       -2.30002       11.93535
C         -2.64669       -3.24643       11.36039
C         -1.42191       -2.83144       10.80933
C         -1.08928       -1.49745       10.86844
C         -3.03460       -4.69197       11.31431
C         -6.64035       -0.92723       12.17830
C         -5.80896        2.03053       12.54336
C         -5.47934        0.00347       14.92448
N         -2.99466        3.46576       11.12413
N         -3.52022        1.55159       10.05928
N         -0.21934        1.44159       12.64440
N         -0.59292        2.00442       10.49587
N         -3.73310        0.07062       12.50679
N         -1.86677       -0.56764       11.41736
Si        -2.52520        5.07192       11.49244
Si         0.39823        0.74937       14.08484
Si        -5.35953        0.23116       13.02455
Zr        -2.29486        1.62907       12.03813
H         -5.43794        4.08832       15.62827
H         -6.22477        4.90886       17.81963
H         -4.79919        4.65912       19.81724
H         -2.58765        3.58473       19.62290
H         -1.79837        2.76398       17.43401
H         -4.37247        4.67035        9.10502
H         -5.29272        0.90020        7.28801
H         -4.02059       -0.19931        9.11900
H         -5.30679        3.28360        5.98822
H         -5.62537        4.65460        7.06257
H         -6.74073        3.28303        7.00675
H         -0.04919        4.60254       11.66268
H         -0.90642        4.02320       13.09350
H         -0.53523        5.73896       12.90415
H         -4.77344        5.94696       12.26332
H         -3.47378        6.85744       13.00700
H         -3.86792        5.25208       13.59743
H         -3.18561        6.71087        9.67027
H         -1.82653        5.72757        9.15463
H         -1.58049        7.06006       10.26524
H          2.41447        1.55371       11.95077
H          1.45655        2.66131        7.92395
H         -0.94617        2.54824        8.55162
H          4.20490        1.89544       10.39849
H          3.84929        3.17969        9.23452
H          3.80462        1.49814        8.72036
H          1.55901        2.77692       15.06220
H          0.97639        1.73112       16.34094
H         -0.14783        2.76392       15.46717
H         -1.08779       -1.29226       14.11011
H         -1.98463        0.14815       14.59766
H         -0.90232       -0.66124       15.73284
H          1.95150       -0.92382       13.00307
H          2.03911       -1.04523       14.74834
H          2.88114        0.24511       13.92477
H         -4.40087       -2.56841       12.38516
H         -0.75833       -3.54815       10.35209
H         -0.15023       -1.13982       10.45456
H         -2.28598       -5.29839       11.82216
H         -3.09183       -5.03317       10.28142
H         -3.99819       -4.85177       11.79052
H         -6.38368       -1.10109       11.13733
H         -7.63219       -0.48753       12.20225
H         -6.70581       -1.89274       12.66995
H         -6.02097        2.11599       11.47977
H         -4.97551        2.69826       12.77711
H         -6.68686        2.38011       13.07753
H         -4.80630        0.69316       15.42590
H         -5.20783       -1.00275       15.22943
H         -6.48384        0.19670       15.28550
