169
CSD_code = ZUQMIH | q = 0 | S = 0 | Stoichiometry = C82H70HfN2O8Si6 | MND = 6
Hf         5.37370       10.73780        4.63846
Si         2.44783       10.88534        4.32381
Si         3.25855       10.97650        1.29931
Si         5.80320       12.37434        1.75177
N          5.06784        8.72776        3.28006
O          3.52212       10.34089        5.34808
O          3.30399       10.65882        2.89730
O          4.72480       11.46769        0.84723
O          5.49222       12.20546        3.29060
C          0.90331        9.79421        4.31087
C         -0.06148        9.90758        3.31544
C         -1.20586        9.12888        3.33453
C         -1.41067        8.22359        4.36246
C         -0.46794        8.10804        5.37040
C          0.67417        8.88859        5.34078
C          1.92430       12.70707        4.35910
C          0.59028       13.10439        4.38805
C          0.24166       14.44333        4.37922
C          1.22675       15.41488        4.34151
C          2.55957       15.03916        4.31915
C          2.90390       13.69853        4.33086
C          1.91626       12.25166        0.90201
C          0.70134       11.86761        0.33831
C         -0.30452       12.78870        0.10497
C         -0.11028       14.12206        0.42390
C          1.09856       14.52733        0.96301
C          2.09738       13.60047        1.19868
C          2.93542        9.36177        0.37048
C          3.59424        9.07901       -0.82190
C          3.31724        7.93123       -1.54258
C          2.35768        7.04283       -1.08617
C          1.68590        7.31003        0.09473
C          1.97630        8.45692        0.81307
C          5.55315       14.17956        1.22448
C          5.23766       14.50687       -0.09082
C          5.02208       15.81915       -0.47125
C          5.12475       16.83721        0.46217
C          5.44560       16.53265        1.77415
C          5.65774       15.21710        2.14625
C          7.48846       11.73084        1.15819
C          8.64851       12.29624        1.67548
C          9.89691       11.78524        1.37140
C         10.01249       10.70424        0.51403
C          8.87290       10.15592       -0.04938
C          7.62678       10.66605        0.27237
C          5.80159        8.55821        2.18250
C          5.60366        7.51173        1.29340
C          4.60314        6.59182        1.55348
C          3.82873        6.77075        2.68990
C          4.09366        7.84819        3.51728
H          0.09052       10.62030        2.51799
H         -1.94104        9.23063        2.54884
H         -2.30439        7.61634        4.38113
H         -0.62781        7.41117        6.18116
H          1.40595        8.81373        6.13129
H         -0.18333       12.35113        4.41965
H         -0.80022       14.72979        4.39906
H          0.95618       16.46108        4.33211
H          3.32827       15.79753        4.28209
H          3.94344       13.39723        4.31523
H          0.55059       10.83038        0.07283
H         -1.24132       12.46703       -0.32768
H         -0.89584       14.84201        0.24509
H          1.26547       15.56706        1.20273
H          3.03872       13.92272        1.61358
H          4.33002        9.78170       -1.18113
H          3.84105        7.73092       -2.46653
H          2.13051        6.14991       -1.65113
H          0.93055        6.62555        0.45461
H          1.45211        8.65836        1.73556
H          5.14579       13.71167       -0.81492
H          4.77089       16.05171       -1.49649
H          4.95545       17.86336        0.16768
H          5.52954       17.32536        2.50504
H          5.90316       14.97438        3.16814
H          8.56556       13.14732        2.33171
H         10.78074       12.22940        1.80584
H         10.98565       10.29705        0.27938
H          8.95771        9.32637       -0.73861
H          6.73824       10.24120       -0.17215
H          6.58829        9.28521        2.02772
H          6.22648        7.42391        0.41769
H          4.42266        5.76296        0.88597
H          3.02969        6.08771        2.93059
H          3.49751        8.02849        4.40314
N          5.67941        8.72766        5.99673
C          4.94562        8.55812        7.09427
C          5.14365        7.51175        7.98347
C          6.14426        6.59191        7.72350
C          6.91860        6.77074        6.58703
C          6.65361        7.84811        5.75956
H          7.24985        8.02845        4.87377
H          7.71761        6.08767        6.34633
H          6.32461        5.76295        8.39093
H          4.52083        7.42396        8.85918
H          4.15913        9.28530        7.24919
O          7.22525       10.34094        3.92881
Si         8.29954       10.88534        4.95310
O          7.44340       10.65881        6.37962
Si         7.48879       10.97650        7.97760
O          6.02253       11.46769        8.42969
Si         4.94415       12.37435        7.52514
O          5.25515       12.20544        5.98633
C          5.19424       14.17956        8.05243
C          5.50970       14.50687        9.36773
C          5.72517       15.81916        9.74818
C          5.62253       16.83722        8.81476
C          5.30179       16.53264        7.50276
C          5.08970       15.21709        7.13065
H          4.84410       14.97438        6.10881
H          5.21775       17.32536        6.77189
H          5.79194       17.86335        9.10923
H          5.97654       16.05171       10.77338
H          5.60164       13.71166       10.09181
C          3.25889       11.73082        8.11869
C          2.09885       12.29614        7.60130
C          0.85044       11.78525        7.90549
C          0.73484       10.70433        8.76297
C          1.87443       10.15599        9.32636
C          3.12055       10.66608        9.00456
H          4.00911       10.24114        9.44897
H          1.78963        9.32631       10.01543
H         -0.23830       10.29701        8.99745
H         -0.03340       12.22944        7.47110
H          2.18178       13.14741        6.94530
C          8.83107       12.25167        8.37491
C         10.04598       11.86763        8.93863
C         11.05186       12.78871        9.17192
C         10.85762       14.12207        8.85297
C          9.64876       14.52733        8.31390
C          8.64993       13.60048        8.07826
H          7.70862       13.92271        7.66327
H          9.48186       15.56705        8.07415
H         11.64314       14.84203        9.03187
H         11.98863       12.46706        9.60467
H         10.19672       10.83039        9.20411
C          7.81190        9.36176        8.90642
C          7.15306        9.07899       10.09878
C          7.43012        7.93124       10.81950
C          8.38973        7.04287       10.36313
C          9.06145        7.31004        9.18218
C          8.77101        8.45690        8.46381
H          9.29524        8.65837        7.54136
H          9.81678        6.62554        8.82228
H          8.61679        6.14987       10.92799
H          6.90625        7.73088       11.74340
H          6.41732        9.78170       10.45804
C          9.84404        9.79418        4.96604
C         10.80881        9.90753        5.96150
C         11.95321        9.12886        5.94241
C         12.15809        8.22366        4.91442
C         11.21537        8.10810        3.90646
C         10.07321        8.88858        3.93613
H          9.34142        8.81368        3.14562
H         11.37518        7.41113        3.09579
H         13.05176        7.61634        4.89581
H         12.68840        9.23067        6.72807
H         10.65685       10.62032        6.75890
C          8.82306       12.70707        4.91785
C         10.15707       13.10439        4.88889
C         10.50568       14.44334        4.89764
C          9.52058       15.41488        4.93531
C          8.18776       15.03915        4.95776
C          7.84345       13.69852        4.94613
H          6.80391       13.39720        4.96168
H          7.41906       15.79751        4.99485
H          9.79114       16.46108        4.94484
H         11.54756       14.72980        4.87785
H         10.93069       12.35114        4.85725
