95
CSD_code = ZUXPUD | q = 0 | S = 0 | Stoichiometry = C30H59O3Si2Y | MND = 5
Y          9.81755       11.94241       -0.06763
Si        12.44777       11.37989        2.59984
Si        12.56013       12.41254       -2.67626
O          7.64999       11.99121       -0.05913
O          9.62795       14.64143        0.45368
O          9.54901        9.27262       -0.70874
C         10.65096       11.22463        2.05610
C         13.22408       12.96063        1.84890
C         13.47919        9.85275        2.07484
C         12.66011       11.52496        4.50198
C         10.73084       12.40496       -2.22793
C         12.87546       12.27503       -4.56547
C         13.42805       14.03281       -2.13091
C         13.45611       10.92631       -1.87033
C          6.33050       12.03035       -0.06342
C          5.59344       11.87683        1.14859
C          4.21115       11.93224        1.11164
C          3.52319       12.12773       -0.06894
C          4.22756       12.27017       -1.24742
C          5.61044       12.22708       -1.27937
C          6.31063       11.64483        2.47923
C          7.22427       12.83806        2.79301
C          5.35069       11.49386        3.66748
C          7.12887       10.34877        2.39668
C          6.34660       12.39625       -2.60906
C          5.40322       12.58404       -3.80541
C          7.19060       11.14737       -2.89900
C          7.23882       13.64328       -2.54212
C         10.66992       15.57797        0.20702
C         10.09350       16.53984       -0.83415
C          8.59760       16.56958       -0.48082
C          8.43941       15.42705        0.53924
C         10.61160        8.33138       -0.62048
C         10.16778        7.30390        0.43051
C          8.63204        7.40432        0.40116
C          8.36406        8.48326       -0.65834
H         10.35659       10.17465        2.18609
H         10.05602       11.78104        2.79279
H         13.30815       12.88277        0.76865
H         12.61454       13.83179        2.07476
H         14.21839       13.14606        2.24349
H         13.38682        9.64030        1.01462
H         14.53344       10.00226        2.28464
H         13.16257        8.96539        2.61410
H         12.24613       10.66071        5.01249
H         13.70452       11.60405        4.78847
H         12.14944       12.40369        4.88428
H         10.31848       13.37031       -2.55125
H         10.25925       11.65948       -2.88460
H         12.42591       11.37354       -4.97080
H         12.44828       13.11873       -5.09912
H         13.93551       12.24394       -4.79913
H         13.50425       14.11606       -1.05162
H         14.43711       14.08098       -2.52797
H         12.89563       14.90696       -2.49346
H         13.33804       10.93356       -0.79052
H         13.05944        9.98665       -2.24375
H         14.52008       10.93884       -2.08507
H          3.63598       11.82201        2.01604
H          2.44360       12.16711       -0.07081
H          3.66491       12.41812       -2.15433
H          7.97932       12.96323        2.01595
H          6.63158       13.74979        2.85375
H          7.72643       12.68871        3.74843
H          5.93164       11.32603        4.57329
H          4.75634       12.39262        3.81424
H          4.68602       10.64338        3.53530
H          7.86037       10.41398        1.59169
H          7.65280       10.17028        3.33501
H          6.46347        9.50779        2.20353
H          4.75253       11.72264       -3.93602
H          4.79423       13.47835       -3.69554
H          5.99762       12.69431       -4.71134
H          6.54518       10.27211       -2.95848
H          7.71335       11.25706       -3.84857
H          7.92620       10.98611       -2.11048
H          7.96211       13.55002       -1.73205
H          7.77582       13.77596       -3.48077
H          6.62173       14.52403       -2.36686
H         11.54579       15.03012       -0.14004
H         10.90783       16.11321        1.13791
H         10.24369       16.13259       -1.83338
H         10.55870       17.52123       -0.78311
H          7.98420       16.39584       -1.36182
H          8.30461       17.52113       -0.04126
H          8.35075       15.82974        1.55769
H          7.58864       14.77692        0.33526
H         11.51943        8.87045       -0.34845
H         10.74818        7.84819       -1.59867
H         10.55554        7.57596        1.41069
H         10.52398        6.30629        0.18378
H          8.24732        7.71855        1.36943
H          8.16020        6.46217        0.13123
H          8.19665        8.02331       -1.64265
H          7.52666        9.13773       -0.41796
