61
CSD_code = ZUYNEM | q = 0 | S = 0 | Stoichiometry = C21H34ClFeN3Si | MND = 5
Fe         2.50897        3.20626        1.96860
Si         2.64782        5.49997        0.19742
Cl         2.24409        3.41768        4.11537
N          0.70255        3.53282        1.51180
N          4.56624        2.34397        2.38808
N          1.96911        0.89322        1.88278
C         -0.47493        3.49526        2.11783
C         -1.65769        3.41998        1.40241
C         -1.59567        3.39305        0.01381
C         -0.36373        3.44770       -0.61711
C          0.78663        3.52525        0.16402
C          2.19190        3.69249       -0.19137
C          2.77314        3.03526       -1.33837
C          2.11664        2.04812       -2.09195
C          2.74742        1.39455       -3.13195
C          4.05870        1.69085       -3.46530
C          4.73129        2.65922       -2.73455
C          4.10337        3.31148       -1.69642
C          1.20540        6.42104        1.05584
C          3.01838        6.48711       -1.39922
C          4.08985        5.67552        1.44626
C          3.27211        0.23908        2.03503
C          4.21486        1.02806        2.93400
C          5.32916        2.20557        1.15210
C          5.38943        3.02277        3.38961
C          1.11954        0.60134        3.03709
C          1.31607        0.36287        0.69205
H         -0.45778        3.52790        3.19807
H         -2.60445        3.39431        1.91776
H         -2.50336        3.35096       -0.57051
H         -0.29567        3.47825       -1.69296
H          1.09284        1.79314       -1.86767
H          2.20698        0.64380       -3.69248
H          4.54741        1.17881       -4.28060
H          5.75574        2.90330       -2.98015
H          4.64399        4.05454       -1.13105
H          1.06631        6.05603        2.06913
H          1.40879        7.48582        1.11594
H          0.26551        6.29659        0.52754
H          3.73150        5.98743       -2.04326
H          2.10938        6.63093       -1.97398
H          3.41621        7.46793       -1.16107
H          3.85710        5.13491        2.36699
H          5.03817        5.31798        1.06229
H          4.22062        6.71799        1.71650
H          3.71813        0.13248        1.04482
H          3.14852       -0.77139        2.45639
H          3.73737        1.19994        3.90001
H          5.12723        0.43060        3.09540
H          6.16109        1.49925        1.27134
H          4.68557        1.87461        0.34223
H          5.73765        3.17177        0.87113
H          6.25604        2.41029        3.66992
H          5.74863        3.97155        2.99981
H          4.78443        3.21418        4.27423
H          0.99018       -0.48145        3.16927
H          1.54773        1.03146        3.93737
H          0.14377        1.05612        2.88385
H          1.16833       -0.72357        0.76816
H          0.34338        0.83406        0.56787
H          1.92206        0.57616       -0.18578
