81
CSD_code = LUTFEN | q = 0 | S = 0 | Stoichiometry = C22H49FeO3PSi5 | MND = 5
Fe         6.79261        0.61808       12.03966
P          5.78907        2.08284       10.91278
Si         7.71059       -1.42698       11.40120
Si         3.37490        1.34845        9.12095
Si         2.92409        2.16316       12.21727
Si         7.86089        3.29420        8.93429
Si         6.93322        4.93072       11.57901
O          4.68730       -1.17583       12.92066
O          9.57708        1.39552       11.78445
O          7.28186        0.88816       14.89196
C          5.46192       -0.43335       12.49429
C          8.45489        1.12500       11.79708
C          7.08339        0.79730       13.76185
C          3.99591        2.43870       10.60852
C          3.94417        3.92210       10.21059
C          5.20495        4.25856        9.43301
C          6.40962        3.67065       10.18642
C          3.66795       -0.49248        9.48972
C          1.52150        1.72141        8.83012
C          4.17918        1.70791        7.41908
C          3.96682        2.32206       13.80942
C          1.95650        0.52517       12.32602
C          1.60323        3.54997       12.26302
C          7.53428        4.28466        7.32552
C          9.61426        3.77494        9.50572
C          7.92638        1.44836        8.44801
C          7.63695        6.47837       10.69137
C          8.19650        4.22284       12.80788
C          5.51928        5.63580       12.66473
C          7.95716       -2.54824       12.95231
C          6.63958       -2.48468       10.18692
C          9.44058       -1.52930       10.54734
H          3.05567        4.13436        9.61455
H          3.90038        4.54634       11.09855
H          5.30847        5.33867        9.31630
H          5.13136        3.82608        8.43902
H          2.82692       -0.94434       10.00135
H          4.54720       -0.62563       10.11391
H          3.82747       -1.05260        8.57424
H          1.37830        2.69279        8.36761
H          0.93722        1.70404        9.74196
H          1.10103        0.98262        8.15602
H          3.85163        0.95246        6.70983
H          5.26297        1.68021        7.44236
H          3.87346        2.66958        7.01791
H          4.97377        2.68051       13.60815
H          4.06794        1.35813       14.29716
H          3.50344        2.99637       14.52312
H          1.37571        0.52589       13.24378
H          2.60721       -0.33874       12.36199
H          1.26413        0.38611       11.50417
H          2.02265        4.51522       12.52636
H          0.85162        3.31304       13.00920
H          1.09288        3.66312       11.31309
H          6.74638        3.84689        6.72160
H          8.43329        4.29566        6.71789
H          7.26201        5.31647        7.51885
H          9.97397        3.12708       10.29529
H          9.68631        4.79746        9.85545
H         10.29868        3.66522        8.66973
H          8.65307        0.92536        9.06042
H          8.22461        1.32641        7.41049
H          6.97552        0.93935        8.58769
H          7.88348        6.29829        9.65131
H          8.53827        6.82278       11.18739
H          6.92587        7.29803       10.72233
H          7.81229        3.33346       13.30087
H          8.41423        4.95601       13.57810
H          9.13432        3.95753       12.33705
H          4.94148        4.86942       13.16894
H          4.83469        6.26044       12.09858
H          5.95778        6.26599       13.43426
H          7.01683       -2.73041       13.46283
H          8.63062       -2.08494       13.66764
H          8.37661       -3.51208       12.68020
H          5.66930       -2.72196       10.60893
H          7.14590       -3.42315        9.98410
H          6.47993       -1.98733        9.23564
H          9.73896       -2.56868       10.44971
H         10.20758       -1.02242       11.12222
H          9.43416       -1.09969        9.55097
