78
CSD_code = ABETOQ | q = 0 | S = 0 | Stoichiometry = C36H24BF15SiZr | MND = 14
Zr         4.11858        1.84614        0.06060
Si         5.98598        4.62446       -0.14705
C          2.67137        1.87725        1.76698
C          1.91645        0.78988        1.12815
C          2.07213       -0.52709        1.36091
C          1.43427       -1.59467        0.53542
C          5.67913        5.97448        1.15952
C          7.34549        5.09601       -1.39223
C          4.37231        4.06417       -0.96706
C          4.30900        3.10641       -2.02056
C          2.99800        2.58117       -2.08707
C          2.24863        3.18499       -1.05048
C          3.09512        4.07588       -0.35160
C          2.44547        1.67690       -3.15414
C          6.25081        2.92350        0.64569
C          5.68015        2.47593        1.86880
C          5.69400        1.06021        1.89267
C          6.20486        0.61790        0.64580
C          6.55134        1.76290       -0.11259
C          5.43998        0.19377        3.09192
B          2.43359       -2.84497        0.08338
C          1.55798       -3.94244       -0.76117
C          0.91878       -3.51709       -1.92271
F          1.08850       -2.24418       -2.34773
C          0.13208       -4.33798       -2.71837
F         -0.45532       -3.85101       -3.82113
C         -0.03069       -5.67260       -2.37014
F         -0.78948       -6.48169       -3.11612
C          0.63419       -6.15472       -1.25089
F          0.53062       -7.44692       -0.92258
C          1.41940       -5.29863       -0.48290
F          2.08764       -5.85921        0.53366
C          3.07230       -3.39128        1.47691
C          2.27506       -4.00843        2.44111
F          0.97199       -4.20421        2.19700
C          2.75323       -4.41980        3.67891
F          1.93767       -5.01251        4.55693
C          4.08267       -4.19229        4.01723
F          4.56031       -4.57209        5.20650
C          4.89654       -3.53189        3.10844
F          6.16944       -3.24517        3.42149
C          4.37836       -3.14345        1.87868
F          5.21522       -2.43465        1.07534
C          3.65062       -2.46720       -0.95756
C          4.05020       -1.20537       -1.32855
F          3.42240       -0.04412       -0.87884
C          5.12706       -0.89048       -2.14036
F          5.36524        0.44904       -2.26980
C          5.88534       -1.89415       -2.70734
F          6.92960       -1.63234       -3.49005
C          5.50772       -3.20710       -2.40573
F          6.20284       -4.21572       -2.92883
C          4.43722       -3.46611       -1.55416
F          4.18308       -4.74774       -1.29245
H          3.06065        1.56912        2.74476
H          2.06860        2.78606        1.88288
H          1.17945        1.07773        0.37191
H          2.70190       -0.85811        2.18114
H          0.95197       -1.12649       -0.32250
H          0.63599       -2.05655        1.12155
H          4.90934        5.68609        1.86896
H          5.36753        6.89989        0.68833
H          6.58536        6.18040        1.71794
H          8.28723        5.26889       -0.88279
H          7.08332        6.00666       -1.91970
H          7.50843        4.32050       -2.13312
H          5.08605        2.94752       -2.75967
H          1.17752        3.09643       -0.91959
H          2.78168        4.77019        0.41922
H          1.80177        0.89919       -2.73764
H          3.24649        1.20749       -3.72435
H          1.84159        2.25712       -3.85432
H          5.43594        3.11208        2.71216
H          6.47749       -0.40643        0.41940
H          7.11164        1.76168       -1.04032
H          6.34419       -0.36262        3.34096
H          4.64876       -0.53465        2.91385
H          5.16805        0.80076        3.95346
