80
CSD_code = AGITIU | q = 0 | S = 0 | Stoichiometry = C31H46HfOSi | MND = 12
C          2.15781        1.34049        3.99993
C          2.57043        1.01068        2.76489
C          2.73693       -0.35510        2.21506
C          1.66008       -1.03893        1.66229
H          0.68938       -0.56634        1.64438
C          1.82676       -2.30780        1.13683
H          0.98065       -2.83023        0.71337
C          3.07385       -2.90902        1.15059
H          3.20321       -3.90086        0.74269
C          4.15633       -2.22970        1.68380
H          5.13335       -2.69149        1.69180
C          3.98938       -0.96025        2.20660
H          4.83615       -0.43270        2.62297
C          0.14397       -1.11759        4.66272
H         -0.22393       -1.68157        5.51523
H          0.38454       -1.82863        3.87968
H         -0.67573       -0.50521        4.30240
C          3.01748       -1.48504        5.39937
H          4.01180       -1.09797        5.58964
H          3.07766       -2.12009        4.52198
H          2.74658       -2.11575        6.24145
C          1.35198        0.63037        6.89664
H          2.10599        0.32737        7.61560
H          0.39814        0.29026        7.28491
H          1.33115        1.71709        6.86691
C         -0.35178        3.38145        4.84129
C         -0.28079        3.31202        3.41957
C          0.17827        4.55901        2.94225
C          0.42518        5.40491        4.05358
C          0.08046        4.68477        5.23858
C         -1.16246        2.46038        5.71198
H         -0.93028        2.60076        6.76480
H         -1.00141        1.41613        5.46082
H         -2.22573        2.67703        5.57796
C         -0.78225        2.19643        2.54885
H         -1.73869        2.47103        2.09840
H         -0.92840        1.28768        3.12529
H         -0.08066        1.98572        1.74190
C          0.22793        4.98253        1.50398
H          0.40800        4.12899        0.85574
H          1.01902        5.70922        1.33857
H         -0.72313        5.43717        1.21459
C          0.69520        6.87996        3.91561
H          1.67649        7.07533        3.48104
H          0.62733        7.38891        4.87407
H         -0.05024        7.32356        3.25351
C         -0.26311        5.28440        6.57833
H         -1.34965        5.31470        6.69165
H          0.10333        6.30311        6.66514
H          0.13134        4.70416        7.41303
C          4.18523        5.07018        4.72349
C          3.35620        5.11017        5.87729
C          3.39008        3.81558        6.48803
C          4.24448        2.99262        5.70003
C          4.72401        3.76614        4.61672
C          4.56293        6.24673        3.86315
H          4.20039        7.17280        4.30268
H          4.15567        6.16169        2.85347
H          5.64830        6.31910        3.78213
C          2.98346        6.36932        6.61586
H          3.88034        6.78749        7.08193
H          2.27117        6.16421        7.40954
H          2.57026        7.13192        5.96082
C          3.01979        3.56210        7.92705
H          3.63610        4.18713        8.57762
H          3.20159        2.52660        8.19934
H          1.97736        3.79396        8.14679
C          4.79264        1.64178        6.05621
H          4.90015        1.02050        5.16887
H          4.15554        1.12301        6.76503
H          5.78184        1.75208        6.50802
C          5.74836        3.28805        3.62317
H          6.69442        3.08557        4.13011
H          5.93670        4.03880        2.85829
H          5.43574        2.36193        3.13565
Hf         2.11239        3.53188        4.31530
O          2.74863        3.96950        2.57589
H          3.69215        3.83065        2.45757
Si         1.70229       -0.10831        5.15889
H          2.82426        1.77850        2.02913
