80
CSD_code = AGITOA | q = 0 | S = 0 | Stoichiometry = C31H46OSiTi | MND = 12
C          5.91253        1.16497        4.05607
C          5.98376        0.65981        2.81855
H          6.39111        1.29807        2.03490
C          5.29552        0.38979        5.13620
C          5.99262        0.05697        6.30202
H          7.02328        0.36439        6.40008
C          5.38160       -0.65050        7.31880
H          5.94197       -0.90516        8.20776
C          4.05410       -1.03658        7.20976
H          3.57689       -1.58360        8.00972
C          3.34844       -0.71718        6.06250
H          2.31448       -1.01854        5.96310
C          3.96199       -0.02094        5.03704
H          3.40872        0.21331        4.14074
C          6.84211       -1.46450        0.82038
H          7.86551       -1.51876        1.18035
H          6.80558       -0.69916        0.05064
H          6.61796       -2.41330        0.34282
C          3.84967       -1.26729        1.47471
H          3.72899       -2.24116        1.00905
H          3.67042       -0.51790        0.70876
H          3.06969       -1.16707        2.22262
C          5.83183       -2.43744        3.57764
H          6.71200       -2.24400        4.18267
H          5.94795       -3.42055        3.13004
H          4.98220       -2.47828        4.25050
C          5.49972        4.23831        2.73317
C          5.92073        5.20983        3.68134
C          5.21753        4.96200        4.89336
C          4.33612        3.87736        4.68177
C          4.49955        3.43116        3.34254
C          5.72956        4.27634        1.24787
H          5.67389        3.27684        0.81768
H          6.69323        4.71262        0.99216
H          4.95539        4.88472        0.77006
C          6.52668        6.54669        3.35689
H          5.73103        7.29691        3.38127
H          6.95828        6.56181        2.36097
H          7.28351        6.85674        4.07494
C          5.26684        5.82248        6.12428
H          4.33528        6.38480        6.22893
H          6.08635        6.53526        6.06489
H          5.40217        5.22170        7.02620
C          3.27823        3.40510        5.63993
H          3.42254        3.84421        6.62629
H          3.27496        2.31763        5.73593
H          2.29197        3.71303        5.28353
C          3.51317        2.59876        2.57726
H          3.03357        3.22297        1.81907
H          2.73980        2.22082        3.24091
H          3.98108        1.75452        2.07168
C          8.72282        3.93385        3.56650
C          8.77209        3.89695        4.99046
C          8.80763        2.53720        5.39362
C          8.68122        1.72813        4.23490
C          8.63066        2.59912        3.10662
C          9.23001        5.05002        2.69762
H         10.26729        4.82551        2.42965
H          9.22747        6.00618        3.21187
H          8.67513        5.14507        1.76638
C          9.01472        5.04283        5.92970
H          8.37055        4.95844        6.80628
H          8.83270        6.00291        5.45103
H         10.05297        5.03396        6.27335
C          9.11541        2.09493        6.79379
H          9.31404        1.02616        6.83556
H          8.28757        2.32801        7.46647
H         10.00269        2.61847        7.15481
C          8.96151        0.25567        4.14473
H          9.99787        0.10471        3.83010
H          8.31092       -0.22988        3.41961
H          8.82520       -0.23940        5.10300
C          8.85982        2.18472        1.68033
H          8.25005        2.75924        0.98330
H          8.65321        1.12728        1.53723
H          9.90785        2.35932        1.41830
O          6.37729        2.88745        6.23227
H          5.52019        2.76932        6.65085
Si         5.60053       -1.10091        2.23520
Ti         6.63459        3.05832        4.50610
