70
CSD_code = BABMUO | q = -1 | S = 0 | Stoichiometry = C21H33MoO10S4Si(1-) | MND = 6
Mo         5.62383        1.32603        4.77276
S          6.43280       -0.90783        5.41700
S          6.17437        0.45666        2.51213
S          5.36233        3.38300        3.56929
S          8.06521        2.15306        4.84077
Si         5.55342        1.72756        8.14065
O          4.01718        1.12316        4.48877
O          5.77559        1.54168        6.55489
O          6.82255       -4.00107        3.05450
O          6.91405       -3.68928        5.27560
O          7.66194       -2.15712        0.86244
O          5.44992       -2.48731        1.04084
O          8.04679        6.02428        2.51461
O          5.87155        5.72330        2.04865
O         10.17144        3.98682        2.84990
O          9.63338        5.09836        4.72447
C          6.54975       -1.81876        3.93093
C          6.45745       -1.22083        2.71584
C          6.77403       -3.25565        4.01293
C          7.13637       -5.07770        5.42312
C          6.62831       -2.01666        1.45636
C          5.50092       -3.31377       -0.11069
C          6.93340        4.12386        3.37470
C          8.05921        3.58158        3.92035
C          7.03118        5.36419        2.61859
C          5.90779        6.91704        1.29155
C          9.39180        4.24155        3.72544
C         10.84611        5.82552        4.61254
C          3.82525        0.94095        8.48494
C          2.75830        1.56521        7.58403
C          3.37720        0.96149        9.94441
C          5.73294        3.63962        8.42371
C          5.48268        4.39848        7.12029
C          4.84665        4.18657        9.53949
C          6.97079        0.80722        9.07509
C          6.73639       -0.70161        9.13420
C          8.30286        1.07961        8.37737
H          6.28050       -5.64457        5.04702
H          7.27088       -5.25105        6.48825
H          8.02653       -5.38326        4.86730
H          5.99565       -2.79038       -0.93230
H          4.46966       -3.54655       -0.36550
H          6.05850       -4.22399        0.12028
H          6.17155        7.76610        1.92789
H          4.90983        7.04412        0.87877
H          6.64828        6.83931        0.49137
H         11.69241        5.14105        4.51826
H         10.92995        6.42136        5.51839
H         10.80549        6.46627        3.72922
H          3.91790       -0.10849        8.17936
H          2.59764        2.61137        7.83668
H          1.80900        1.04087        7.69519
H          3.06931        1.50214        6.53938
H          4.14450        0.54495       10.59201
H          2.46584        0.37736       10.07151
H          3.17383        1.97739       10.27113
H          6.77066        3.83429        8.71680
H          6.22984        4.12007        6.37523
H          5.55002        5.47483        7.28041
H          4.49727        4.16833        6.71490
H          3.79652        4.09004        9.27762
H          5.05533        5.24322        9.70844
H          5.02370        3.64981       10.46828
H          7.04113        1.18154       10.10308
H          5.83017       -0.93873        9.68596
H          7.57513       -1.19737        9.62321
H          6.64377       -1.10148        8.12685
H          8.26342        0.70936        7.35371
H          9.12024        0.57630        8.89340
H          8.52155        2.14422        8.34082
