42
CSD_code = BEHLOP | q = 0 | S = 0 | Stoichiometry = C13H22BFeNO3Si | MND = 7
Fe         9.94707        9.57710        1.12683
C         11.52744        9.12296        0.55905
O         12.58633        8.83277        0.21480
C         10.70819       11.00144        1.85445
O         11.28311       11.84971        2.37890
C          9.95792        8.18690        2.27325
O         10.23184        7.39104        3.05996
Si         7.10657        8.91965        0.46007
N          7.81196       10.34887        1.27604
B          8.49446       11.17143        0.27209
C          9.04261       10.23413       -0.83409
C          8.61497        8.90174       -0.67301
C          5.48284        9.43905       -0.41243
H          5.10416        8.63717       -1.03854
H          5.63618       10.30961       -1.04403
H          4.70459        9.68153        0.30646
C          6.74583        7.49712        1.66491
H          7.59946        7.24424        2.28251
H          6.46463        6.61078        1.10839
H          5.91671        7.74492        2.31928
C          7.17984       10.89879        2.45703
H          7.03590       10.11823        3.20472
H          6.20018       11.32009        2.21066
H          7.79160       11.68650        2.89592
C          8.48034       12.76607        0.28456
H          9.27777       13.16747       -0.34377
H          8.64854       13.16862        1.28621
C          7.14402       13.32179       -0.22806
H          7.15218       14.41034       -0.22837
H          6.32022       12.98865        0.39949
H          6.95249       12.98283       -1.24408
C          9.85334       10.68091       -2.02528
H         10.54373        9.90173       -2.35239
H         10.44473       11.55855       -1.75930
C          8.91851       11.04037       -3.18222
H          9.49135       11.36093       -4.04955
H          8.25308       11.84883       -2.88999
H          8.31332       10.18246       -3.46512
C          8.94465        7.78199       -1.61753
H          8.80145        6.82081       -1.13015
H          9.97105        7.83607       -1.97263
H          8.28203        7.81731       -2.48423
