44
CSD_code = BEHYES | q = 0 | S = 0 | Stoichiometry = C17H20CrO5Si | MND = 9
Cr         3.14594        1.29286        7.04043
Si         0.56219        5.91541       10.30520
O          1.71063       -1.11090        8.05037
O          5.34747       -0.71055        7.02029
O          3.93362        1.40168        9.90760
O          4.03867        5.73120        6.74740
O          5.77334        4.29108        7.12048
C          2.23035       -0.16951        7.63082
C          4.50321        0.07726        6.98174
C          3.62295        1.38492        8.79450
C          2.16883        3.32913        7.01695
C          3.53412        3.46251        6.62643
C          4.01798        2.74900        5.53409
H          5.02951        2.93542        5.19360
C          3.17602        1.86472        4.82895
H          3.54707        1.36463        3.94248
C          1.84360        1.71868        5.21312
H          1.17318        1.09729        4.63090
C          1.33986        2.44349        6.30836
H          0.28670        2.39106        6.55970
C          1.64906        4.13208        8.05656
C          1.20695        4.83801        8.93401
C         -1.33980        5.81135       10.28811
H         -1.74620        6.15648        9.34196
H         -1.77564        6.42091       11.07453
H         -1.67836        4.79058       10.43831
C          1.14829        7.69824        9.96441
H          0.86794        8.02040        8.96596
H          2.22827        7.78251       10.04349
H          0.71328        8.39952       10.67086
C          1.27857        5.26156       11.94437
H          0.92829        5.84555       12.79083
H          2.36393        5.30008       11.94505
H          0.99027        4.22862       12.11418
C          4.39434        4.50565        7.31137
H          4.17522        4.51165        8.40311
C          4.56727        6.85257        7.42373
H          4.20288        7.72496        6.88696
H          5.65996        6.83748        7.41321
H          4.21050        6.87674        8.46003
C          6.36807        3.39604        8.03417
H          7.43417        3.41818        7.81880
H          5.98597        2.37562        7.90978
H          6.19403        3.71554        9.06754
