74
CSD_code = BOFGOS | q = 0 | S = 0 | Stoichiometry = C35H35FeOPSi | MND = 8
Fe         0.80245       11.98916        5.15684
P          1.18223       12.55220        3.10783
Si         0.83210       14.04106        6.04166
O         -2.04376       12.40667        4.98540
C          0.82179       14.17202        2.33896
C         -0.52632       14.52274        2.28791
C         -0.91957       15.71405        1.71028
C          0.03268       16.57493        1.18575
C          1.37315       16.23398        1.23644
C          1.77078       15.03620        1.80795
C          0.25187       11.54689        1.88566
C         -0.57610       10.52150        2.32127
C         -1.29038        9.76319        1.40978
C         -1.18188       10.02578        0.05488
C         -0.36102       11.05189       -0.38770
C          0.35092       11.81177        0.52075
C          2.90995       12.25774        2.58614
C          3.29927       11.27956        1.67956
C          4.64294       11.08323        1.40645
C          5.60620       11.85242        2.03643
C          5.22517       12.81390        2.95998
C          3.88652       13.00556        3.24186
C         -0.89707       12.28679        5.02714
C          2.13416       11.31435        6.78644
C          0.85432       10.71749        6.88891
C          0.65349        9.91398        5.73803
C          1.77167       10.06898        4.90139
C          2.68022       10.95831        5.54519
C          0.35573       13.93389        7.90315
C          0.31357       15.31889        8.53500
C         -0.70669       16.23353        7.86806
C         -0.32456       16.61326        6.44234
C         -0.38569       15.42617        5.48920
C          2.55080       14.88724        5.96249
C          2.83433       15.82046        4.96779
C          4.06793       16.44156        4.88846
C          5.05609       16.14107        5.81087
C          4.79176       15.22610        6.81568
C          3.55361       14.61289        6.88600
H          2.63402       11.87387        7.55488
H          0.22138       10.73106        7.76071
H         -0.17268        9.24022        5.58234
H          1.97099        9.52430        3.99135
H          3.68072       11.17580        5.21043
H          2.07383       16.06247        4.24128
H          4.25916       17.16217        4.10544
H          6.02207       16.62209        5.75193
H          5.55270       14.99368        7.54788
H          3.35991       13.91653        7.68703
H         -1.25812       13.84676        2.70953
H         -1.96629       15.97698        1.67323
H         -0.27112       17.50955        0.73803
H          2.11657       16.90275        0.82720
H          2.81929       14.77742        1.83600
H         -0.65947       10.33642        3.38291
H         -1.93494        8.96875        1.75667
H         -1.73900        9.43544       -0.65766
H         -0.27888       11.26032       -1.44463
H          0.98832       12.61587        0.17733
H          2.55763       10.66698        1.18672
H          4.93826       10.32151        0.69925
H          6.65209       11.69540        1.81728
H          5.97065       13.40748        3.46916
H          3.57927       13.72893        3.98397
H          1.04330       13.30987        8.46947
H         -0.62677       13.47010        7.99097
H          1.30278       15.77763        8.46684
H          0.06388       15.22925        9.59741
H         -1.68039       15.73806        7.85807
H         -0.80441       17.14607        8.46287
H         -1.00495       17.39595        6.09173
H          0.68502       17.03029        6.44033
H         -1.40255       15.03693        5.47675
H         -0.17606       15.76948        4.47855
