90
CSD_code = BOLYIL | q = 0 | S = 0 | Stoichiometry = C34H53ClSiTi | MND = 12
Ti         1.90851        6.96462        6.03891
Cl         1.42890        8.54815        7.57143
Si         1.58021        2.92225        7.95736
C          3.89114        6.11323        5.41217
C          4.14781        6.47481        6.77427
C          4.13053        7.88577        6.84593
C          3.84937        8.39722        5.55435
C          3.78440        7.30800        4.64461
C          4.01863        4.73764        4.84572
C          4.74616        5.56778        7.81001
H          5.82668        5.73519        7.83815
H          4.56455        4.52462        7.56721
H          4.34936        5.76697        8.80184
C          4.52720        8.71844        8.02537
H          4.54380        8.12373        8.93552
H          3.84342        9.55368        8.17030
H          5.52771        9.12683        7.86145
C          3.83092        9.85929        5.22421
H          4.83120       10.28475        5.33532
H          3.16498       10.39413        5.90353
H          3.49902       10.03553        4.20254
C          4.13467        7.38071        3.18552
H          5.20633        7.17874        3.08914
H          3.95362        8.36774        2.77080
H          3.61165        6.64259        2.58291
C          0.75965        6.15581        4.11751
C          0.88957        7.53692        3.81090
C          0.20188        8.26789        4.80886
C         -0.44087        7.35343        5.67782
C         -0.07169        6.03722        5.27874
C          1.04273        5.00628        3.19424
H          0.12738        4.73599        2.65978
H          1.37689        4.13188        3.75086
H          1.79568        5.25789        2.44970
C          1.22105        8.13883        2.47548
H          0.28307        8.44316        2.00253
H          1.70569        7.43071        1.81033
H          1.84067        9.02982        2.55826
C         -0.02800        9.74844        4.81518
H          0.72797       10.27016        4.23199
H         -0.01142       10.13529        5.83360
H         -1.00688        9.97687        4.38543
C         -1.56875        7.73928        6.58689
H         -2.37612        8.15738        5.97958
H         -1.26921        8.50331        7.30392
H         -1.95833        6.87944        7.12406
C         -0.79576        4.78495        5.67821
H         -1.00233        4.77370        6.74633
H         -0.21133        3.90214        5.43097
H         -1.74664        4.73152        5.13961
C          3.17495        3.67160        5.52150
C          2.28311        3.93084        6.48879
C          1.84793        5.20986        7.13791
C          1.40744        4.76293        8.35135
C          0.96019        5.42025        9.63158
C          3.53915        2.25297        5.06817
C          3.90141        2.20702        3.57324
H          4.09431        1.17601        3.28196
H          4.79662        2.77888        3.34774
H          3.08118        2.57853        2.96264
C          4.75590        1.76462        5.86896
H          4.54812        1.80266        6.93372
H          5.62890        2.38188        5.66798
H          4.99801        0.73904        5.59696
C          2.38586        1.26488        5.26913
H          2.59168        0.34106        4.73161
H          1.45261        1.67835        4.89524
H          2.26056        1.01631        6.31514
C          2.77645        1.87664        9.02651
H          3.70215        2.40503        9.23282
H          3.02683        0.93171        8.55410
H          2.31284        1.64067        9.97944
C         -0.02716        1.89896        7.81164
H         -0.42395        1.70824        8.80387
H          0.15280        0.93504        7.34774
H         -0.79726        2.40331        7.24101
C          2.03615        6.37137       10.16721
H          2.92204        5.80948       10.45968
H          1.66602        6.90170       11.04287
H          2.30487        7.10127        9.40816
C         -0.34007        6.19457        9.40391
H         -0.16924        6.98010        8.67662
H         -0.68087        6.64544       10.33425
H         -1.11889        5.52486        9.04219
C          0.69978        4.34733       10.69525
H         -0.07237        3.65718       10.36449
H          0.36765        4.81333       11.62129
H          1.60545        3.78405       10.90332
H          3.79514        4.77328        3.77760
H          5.06823        4.42587        4.94284
