123
CSD_code = BUYNOA | q = 0 | S = 0 | Stoichiometry = C51H66FeN4Si | MND = 3
Fe         3.40781        1.73929        4.58108
Si         4.33303        2.13614        1.58451
H          5.74858        1.74754        1.79654
H          3.94546        1.75009        0.21921
N          3.36289        1.38414        2.77817
N          2.91753        2.60016        6.05591
H          3.39415        3.48974        6.21569
N          6.73852        2.63388        5.02287
N          6.72511        0.52769        4.70217
C          5.89144        1.58315        4.88757
C          8.05381        2.24682        4.92276
H          8.86263        2.94090        5.02142
C          8.04588        0.91405        4.72146
H          8.84997        0.21510        4.62306
C          6.41201        3.97322        5.34716
C          5.96469        4.26646        6.63878
C          5.71214        5.58814        6.96946
H          5.37290        5.82712        7.96777
C          5.91185        6.61626        6.05723
C          6.39812        6.30147        4.79867
H          6.58143        7.09120        4.08474
C          6.65915        4.98991        4.42632
C          7.22582        4.69470        3.07118
H          8.31631        4.71126        3.10694
H          6.90118        5.44527        2.35518
H          6.90704        3.71870        2.71549
C          5.59924        8.03296        6.43164
H          6.13334        8.73164        5.79269
H          5.86290        8.22822        7.46903
H          4.53083        8.22058        6.31812
C          5.81451        3.17653        7.65706
H          5.46861        3.58086        8.60490
H          6.77347        2.68410        7.82123
H          5.10609        2.42519        7.31162
C          6.39643       -0.84853        4.64650
C          6.82246       -1.61936        3.56451
C          6.64683       -2.99595        3.61728
H          6.98858       -3.59706        2.78622
C          6.05292       -3.61294        4.70644
C          5.60583       -2.81887        5.75497
H          5.13211       -3.28755        6.60562
C          5.77333       -1.44494        5.74742
C          5.33082       -0.61522        6.91136
H          4.93535       -1.24663        7.70164
H          4.55954        0.09082        6.59240
H          6.16615       -0.04025        7.30992
C          5.88423       -5.10109        4.76450
H          4.83272       -5.35957        4.88595
H          6.42665       -5.50956        5.61686
H          6.25649       -5.57268        3.85826
C          7.46609       -0.99880        2.36052
H          7.28123       -1.60929        1.48024
H          8.54628       -0.92356        2.49007
H          7.07029       -0.00230        2.17874
C          2.17312        0.76283        2.36826
C          2.14815       -0.61388        2.08814
C          0.99022       -1.19318        1.59424
H          0.98087       -2.24463        1.34669
C         -0.15565       -0.44702        1.39895
H         -1.04711       -0.90925        1.00079
C         -0.15260        0.89432        1.72873
H         -1.05475        1.47335        1.59404
C          0.98734        1.51152        2.21894
C          0.94422        2.97906        2.57559
H          1.90669        3.24254        3.03072
C         -0.14041        3.29106        3.60952
H         -1.12575        2.99458        3.25785
H         -0.16001        4.36061        3.81018
H          0.06521        2.77333        4.54459
C          0.75840        3.83004        1.31790
H          1.52994        3.59710        0.58723
H          0.82884        4.88848        1.56248
H         -0.21310        3.64229        0.86542
C          3.38221       -1.45304        2.31154
H          4.09919       -0.84550        2.87802
C          3.06608       -2.70512        3.12983
H          2.35580       -3.34677        2.61432
H          2.64744       -2.42933        4.09462
H          3.97563       -3.27338        3.30030
C          4.01648       -1.83404        0.97292
H          4.89622       -2.45245        1.13642
H          4.31212       -0.93918        0.43025
H          3.31064       -2.39274        0.36148
C          4.22007        4.02178        1.71812
C          3.96957        4.61725        2.94836
H          3.90049        3.97901        3.82943
C          3.81413        5.98555        3.06759
H          3.60515        6.42666        4.03088
C          3.92991        6.79207        1.94759
H          3.80688        7.86267        2.03341
C          4.20341        6.22040        0.71625
H          4.30069        6.84629       -0.16018
C          4.34102        4.84777        0.60745
H          4.54403        4.40636       -0.35850
C          1.82936        2.50736        6.89496
C          1.40192        3.61892        7.67108
C          0.28891        3.49789        8.48277
H         -0.05165        4.34464        9.05718
C         -0.41072        2.30914        8.57731
H         -1.27697        2.23619        9.21798
C          0.00967        1.22032        7.83997
H         -0.53828        0.29308        7.91644
C          1.10826        1.29367        7.00035
C          1.49104        0.05267        6.22173
H          2.40707        0.25129        5.63067
C          1.79221       -1.11143        7.17128
H          2.46917       -0.79488        7.96107
H          2.25033       -1.93361        6.62546
H          0.87948       -1.47873        7.63436
C          0.38706       -0.33927        5.23863
H         -0.54255       -0.54984        5.76243
H          0.67517       -1.22530        4.67840
H          0.20965        0.46041        4.52660
C          2.12005        4.95070        7.56541
H          3.19712        4.76778        7.47464
C          1.64839        5.68121        6.30301
H          1.82273        5.07315        5.41782
H          2.17719        6.62633        6.18969
H          0.58202        5.88752        6.37086
C          1.94623        5.85423        8.78661
H          0.93799        6.25669        8.84446
H          2.63409        6.69560        8.71524
H          2.16138        5.31038        9.70397
