117
CSD_code = CAFYAK | q = 0 | S = 0 | Stoichiometry = C57H54CoOP3Si | MND = 4
Co         6.50822        3.64817       13.76606
O          5.92553        4.26259       15.48458
Si         6.12610        4.43885       17.03945
C          7.80553        5.25010       17.50817
H          7.71274        6.32611       17.61844
H          8.55435        5.07526       16.73897
H          8.19845        4.86069       18.44258
P          7.79381        5.44967       13.36675
C          7.01234        6.21683       11.89811
C          7.04951        5.48296       10.71376
H          7.58895        4.54596       10.69557
C          6.42893        5.94811        9.57077
H          6.47497        5.36819        8.65962
C          5.74912        7.15509        9.59562
H          5.25844        7.52050        8.70544
C          5.70511        7.89010       10.76731
H          5.18023        8.83390       10.79286
C          6.33025        7.42759       11.91242
H          6.28512        8.01684       12.81561
C          7.89472        6.88910       14.48181
C          9.07209        7.57263       14.76088
H         10.00743        7.25339       14.32417
C          9.05216        8.66925       15.60524
H          9.97215        9.19365       15.82113
C          7.86304        9.09700       16.17069
H          7.85422        9.95467       16.82774
C          6.68781        8.41501       15.89934
H          5.75957        8.74105       16.34643
C          6.70404        7.31222       15.06708
H          5.80231        6.75192       14.87447
C          9.54309        5.30599       12.85177
C         10.07797        5.84402       11.68804
H          9.44644        6.39048       11.00295
C         11.42418        5.68849       11.40710
H         11.83190        6.10804       10.49862
C         12.25022        5.00800       12.28559
H         13.30156        4.89577       12.06370
C         11.72569        4.47437       13.45219
H         12.36578        3.94389       14.14273
C         10.37947        4.61743       13.72815
H          9.96061        4.19767       14.63343
C          4.71162        5.50614       17.76343
H          3.74028        5.05931       17.56776
H          4.70545        6.50979       17.35032
H          4.81948        5.59571       18.83956
C          6.07260        2.77456       18.00769
H          6.57072        1.96660       17.47733
H          5.04895        2.46318       18.19275
H          6.55524        2.87230       18.97573
P          4.35767        3.33834       13.30788
C          3.87968        2.41736       11.80586
C          4.55552        2.74975       10.63438
H          5.28042        3.55440       10.66562
C          4.30217        2.07000        9.45842
H          4.81427        2.34750        8.54716
C          3.39149        1.02571        9.44678
H          3.19907        0.48508        8.53177
C          2.73501        0.67353       10.61310
H          2.03214       -0.14694       10.60892
C          2.97383        1.36514       11.78769
H          2.45647        1.08094       12.69227
C          3.11707        2.76757       14.51565
C          1.76280        3.02757       14.31893
H          1.44420        3.58144       13.44589
C          0.83179        2.58058       15.23696
H         -0.21811        2.78459       15.08193
C          1.24219        1.87388       16.35733
H          0.51122        1.52860       17.07414
C          2.58765        1.61976       16.55924
H          2.90883        1.07633       17.43617
C          3.52274        2.06566       15.64126
H          4.57626        1.90383       15.80982
C          3.65769        4.99789       12.97939
C          3.25456        5.46817       11.73649
H          3.31313        4.83528       10.86334
C          2.75753        6.75443       11.61045
H          2.44079        7.10974       10.64022
C          2.66110        7.58086       12.71592
H          2.27334        8.58382       12.61047
C          3.05898        7.11472       13.95914
H          2.98096        7.75414       14.82681
C          3.55278        5.83176       14.09116
H          3.87077        5.45414       15.05250
P          7.49604        2.09502       12.56110
C          8.63332        2.21343       11.13374
C          8.09869        2.33310        9.85046
H          7.02816        2.26567        9.71681
C          8.92410        2.52927        8.75948
H          8.49839        2.60991        7.76935
C         10.29524        2.62730        8.93466
H         10.94034        2.78357        8.08278
C         10.83275        2.52801       10.20636
H         11.89997        2.60902       10.35119
C         10.00934        2.32859       11.29976
H         10.43963        2.25973       12.28765
C          8.58063        1.34061       13.82804
C          9.35492        0.21353       13.56782
H          9.34901       -0.22735       12.58003
C         10.12947       -0.33518       14.57254
H         10.73495       -1.20680       14.36896
C         10.12887        0.22580       15.84114
H         10.73798       -0.20807       16.62081
C          9.34181        1.33306       16.10995
H          9.32808        1.76598       17.09938
C          8.56685        1.88617       15.10574
H          7.93443        2.74866       15.30993
C          6.55374        0.56390       12.19391
C          6.70221       -0.24763       11.07758
H          7.41173        0.00548       10.30355
C          5.94061       -1.39730       10.95271
H          6.05596       -2.01929       10.07660
C          5.04166       -1.75659       11.94127
H          4.45205       -2.65526       11.83529
C          4.90621       -0.96335       13.06928
H          4.21449       -1.24185       13.85093
C          5.65602        0.18881       13.18942
H          5.55474        0.82003       14.06451
