64
CSD_code = CAXVON | q = 0 | S = 0 | Stoichiometry = C26H35ClSiTi | MND = 12
Ti         5.65842        2.76127        2.38785
Cl         3.40037        2.76100        2.40133
C          6.61102        1.40476        0.74535
C          5.28059        0.93098        0.93648
C          5.17067        0.40388        2.24362
C          6.43192        0.53555        2.88221
C          7.31839        1.16311        1.96838
C          4.22185        0.79049       -0.11618
H          3.69619       -0.15464        0.02092
H          4.66960        0.78973       -1.10582
H          3.47887        1.58817       -0.06080
C          3.99729       -0.31985        2.82899
H          3.07454       -0.04316        2.32368
H          3.89300       -0.08038        3.88815
H          4.13920       -1.39985        2.73624
C          6.81069       -0.17936        4.14523
H          6.05741       -0.04379        4.92105
H          7.76678        0.16599        4.53023
H          6.89200       -1.24990        3.93870
C          8.81044        1.11038        2.12305
H          9.15305        1.55277        3.05753
H          9.31116        1.60114        1.29656
H          9.12538        0.06352        2.12798
C          5.81613        2.76045        4.43748
C          4.71164        2.76080        5.29409
H          3.70368        2.76077        4.89251
C          4.85188        2.76094        6.67570
H          3.96939        2.76059        7.30126
C          6.10767        2.76104        7.25349
H          6.21857        2.76088        8.32839
C          7.22220        2.76119        6.43308
H          8.21349        2.76127        6.86747
C          7.07016        2.76096        5.05609
H          7.97138        2.76153        4.44979
C          6.13518        2.76098       -2.15055
H          5.05787        2.76093       -2.05111
H          6.41663        1.88796       -2.73167
H          6.41656        3.63399       -2.73172
C          8.89328        2.76101       -1.14803
H          9.67458        2.76043       -0.39855
H          9.04590        3.63585       -1.77170
H          9.04550        1.88672       -1.77255
Si         7.09269        2.76105       -0.49445
C          6.61103        4.11756        0.74513
C          5.28058        4.59130        0.93634
C          5.17075        5.11843        2.24348
C          6.43208        4.98690        2.88194
C          7.31850        4.35935        1.96806
C          4.22175        4.73181       -0.11622
H          3.69663        5.67730        0.02057
H          4.66938        4.73188       -1.10594
H          3.47836        3.93451       -0.06030
C          3.99736        5.84204        2.82895
H          3.07458        5.56528        2.32371
H          3.89317        5.60257        3.88813
H          4.13919        6.92205        2.73618
C          6.81093        5.70179        4.14494
H          6.05784        5.56600        4.92091
H          7.76716        5.35656        4.52971
H          6.89196        6.77234        3.93844
C          8.81057        4.41210        2.12261
H          9.15359        3.96754        3.05591
H          9.31117        3.92349        1.29476
H          9.12522        5.45903        2.12997
