56
CSD_code = CAXYIK | q = 0 | S = 0 | Stoichiometry = C23H28ClN2NbSi | MND = 8
C          4.76247        3.03740        8.36357
H          5.14650        3.39302        9.30779
C          0.83940        0.56863        1.74267
C          0.35835        0.48898        3.08803
H         -0.45904        1.07559        3.49706
C          0.87835       -0.69188        3.67782
H          0.56470       -1.11928        4.62318
C          1.71482       -1.31021        2.72737
H          2.21460       -2.26305        2.84991
C          1.68981       -0.53210        1.55851
H          2.21305       -0.77275        0.64156
C          0.75092        4.17572        4.21146
H          0.33398        4.86141        4.94428
H          1.15398        3.29655        4.72823
H         -0.04518        3.84616        3.54408
C         -0.33426        3.38999        0.68586
H         -1.12034        3.20138        1.40977
H         -0.76077        3.26003       -0.30213
H         -0.03102        4.42721        0.78457
C          2.03351        1.97029       -0.77072
H          3.02031        1.52843       -0.66052
H          2.14037        2.90632       -1.30947
H          1.43721        1.30701       -1.39065
C          2.57151        4.10477        2.48145
C          1.84918        4.83895        3.43647
C          2.18515        6.16284        3.67200
H          1.62683        6.72641        4.40527
C          3.22415        6.76597        2.98612
H          3.47079        7.79995        3.17395
C          3.95856        6.03028        2.07516
H          4.79004        6.48768        1.55860
C          3.65353        4.70115        1.81730
C          4.49151        3.89910        0.86925
H          4.63561        2.88953        1.26029
H          5.46290        4.36832        0.73369
H          4.00975        3.82746       -0.10460
C          3.76863        2.12669        5.92772
C          3.17791        1.70344        7.13830
C          3.68443        2.16804        8.33867
H          3.23274        1.84483        9.26574
C          5.35323        3.44342        7.17733
H          6.20062        4.11322        7.20252
C          4.87804        3.00080        5.95653
C          2.02865        0.74496        7.07003
H          2.35235       -0.17665        6.57726
H          1.21669        1.17424        6.47597
H          1.65886        0.50722        8.06382
C          5.49215        3.40802        4.65572
H          5.72556        2.51926        4.06369
H          6.39710        3.98759        4.81594
H          4.77846        4.00328        4.08282
Cl         4.62960        0.37060        2.27622
N          2.21431        2.77521        2.22485
N          3.28505        1.68753        4.75188
Nb         2.62011        1.07902        3.22453
Si         1.16909        2.23802        0.91136
