91
CSD_code = CEJNOX | q = 0 | S = 0 | Stoichiometry = C33H50ClNO2P2RuSi | MND = 5
Ru         8.21689        1.65805       11.02821
Cl         6.17175        1.80714       14.13251
P          9.44873        3.14325       12.23904
P          7.74304       -0.05350        9.58445
Si         6.05766        2.06714       11.97662
O         10.83787        3.22132       11.32385
O          9.28497       -0.51948        9.15162
N         10.06627        1.35955       10.22109
C          4.41381        1.07677       11.72241
C         11.52334        0.12437        8.77742
H         11.64486       -0.72013        8.12028
C         11.07345        2.21216       10.46993
C         12.32689        2.07827        9.89449
H         13.09130        2.79913       10.13039
C         10.29457        0.33744        9.38167
C         12.55445        1.01506        9.03386
H         13.51902        0.88192        8.57270
C         10.12169        2.13463       13.70760
C          8.14664        5.27572       13.44321
H          7.25931        4.82328       13.00468
H          8.26081        4.89612       14.45391
H          7.98585        6.35144       13.50154
C          7.08307        0.31907        7.84827
C          3.53018        1.45382       10.71553
H          3.77342        2.30177       10.09212
C          4.05868       -0.00350       12.52402
H          4.71747       -0.31116       13.32334
C          7.17993       -1.76585       10.16387
C          9.36881        4.98272       12.57896
C          7.00993       -0.88341        6.91288
H          7.96667       -1.40102        6.87842
H          6.23226       -1.58077        7.21056
H          6.77686       -0.53806        5.90570
C          5.27823        3.83083       11.87046
C          9.43545        2.51213       15.01545
H          9.75285        3.49460       15.35542
H          8.35358        2.50087       14.90182
H          9.70163        1.79180       15.78951
C          2.34349        0.77475       10.50975
H          1.67227        1.08883        9.72240
C          7.61031       -1.78008       11.63481
H          8.69445       -1.67389       11.71756
H          7.11802       -0.97109       12.18134
H          7.33202       -2.72165       12.10679
C          9.71003        0.70270       13.31449
H          8.66671        0.69750       12.92810
H         10.40021        0.28636       12.57288
H          9.72844        0.04337       14.18335
C          5.66115       -1.87322       10.09349
H          5.19516       -0.98044       10.50538
H          5.31450       -2.01066        9.07284
H          5.32378       -2.72955       10.67670
C         11.63863        2.20255       13.88272
H         12.16874        1.88617       12.98494
H         11.96205        3.20959       14.13142
H         11.93442        1.53973       14.69624
C          7.83984       -2.94336        9.44941
H          7.50767       -3.03225        8.42091
H          8.92344       -2.85324        9.45756
H          7.57235       -3.86357        9.96857
C         10.64130        5.54111       13.20817
H         10.75262        5.21023       14.23797
H         11.51826        5.23955       12.63916
H         10.59405        6.62952       13.21043
C          5.48578        4.59744       10.72843
H          6.11609        4.19935        9.94297
C          8.05071        1.34294        7.24540
H          8.23632        2.15332        7.95494
H          9.00118        0.88172        6.98021
H          7.61962        1.77295        6.34298
C          4.46298        4.35624       12.86700
H          4.28094        3.78042       13.76252
C          3.88711        5.60733       12.73506
H          3.25950        5.99767       13.52411
C          4.91149        5.84690       10.58595
H          5.08777        6.42497        9.68914
C          5.71867        0.97652        8.02682
H          4.99262        0.28865        8.45124
H          5.81802        1.82706        8.70091
H          5.34068        1.32735        7.06771
C          2.87012       -0.68497       12.32922
H          2.61439       -1.51690       12.97078
C          9.14915        5.59183       11.19099
H         10.04847        5.51195       10.58306
H          8.33588        5.06840       10.68459
H          8.88110        6.64306       11.27789
C          2.00942       -0.30068       11.31611
H          1.08016       -0.83035       11.16056
C          4.11000        6.35748       11.59334
H          3.66020        7.33481       11.48779
H          7.90956        2.70467        9.95601
