54
CSD_code = CEQXOL | q = 0 | S = 0 | Stoichiometry = C15H25B2N8O2ReSi | MND = 6
Re         1.35330        0.85929        3.01720
O          0.22470       -0.30969        2.72206
O          2.64228        2.13413        3.30303
B          2.39998       -1.21797        0.60304
H          1.32544       -1.61232        0.93257
H          2.92432       -1.84443       -0.25416
N          2.98961       -0.50494        2.93867
N          3.31261       -1.19197        1.84772
C          3.94625       -0.68837        3.84799
H          3.90057       -0.21017        4.80669
C          4.91486       -1.53330        3.32798
H          5.80870       -1.87919        3.80459
C          4.46285       -1.82800        2.05025
H          4.89697       -2.44867        1.29319
N          1.75774        1.18609        0.94945
N          2.26245        0.25138        0.15055
C          1.74094        2.34095        0.28489
H          1.38655        3.24196        0.74578
C          2.24235        2.14046       -0.99222
H          2.35904        2.86365       -1.77270
C          2.55892        0.79059       -1.02843
H          2.97119        0.20186       -1.82233
B          0.47287        3.11173        5.48110
H          1.53245        3.60104        5.23998
H         -0.12427        3.67968        6.33502
N          1.11364        0.67851        5.11806
N          0.68132        1.64685        5.92199
C          1.24880       -0.43574        5.83946
H          1.55849       -1.35399        5.38013
C          0.90544       -0.17296        7.15595
H          0.90591       -0.85179        7.98320
C          0.55217        1.16750        7.15696
H          0.22275        1.79110        7.96276
N         -0.12445        2.37900        3.12091
N         -0.38774        3.11307        4.19923
C         -1.02095        2.68050        2.17984
H         -1.01319        2.17869        1.23210
C         -1.88270        3.65196        2.66326
H         -2.70925        4.10720        2.15859
C         -1.43683        3.89440        3.95324
H         -1.80840        4.57379        4.69286
Si         3.92932        3.10515        3.32735
C          5.16835        2.46342        2.01527
H          5.48357        1.44601        2.23127
H          6.05804        3.08340        1.98380
H          4.72995        2.46612        1.02080
C          3.39360        4.88511        2.88591
H          3.08492        4.96633        1.84735
H          4.21381        5.57897        3.03800
H          2.56349        5.21294        3.50483
C          4.73992        3.04673        5.05631
H          5.18508        2.07665        5.25934
H          4.01528        3.24890        5.83961
H          5.52680        3.78979        5.13379
