119
CSD_code = CEXGOD | q = 0 | S = 0 | Stoichiometry = C52H58F3IrN4Si | MND = 4
Ir         3.09155        4.86930       18.63013
Si         4.72933        2.14816       17.12758
N          2.64892        5.80973       16.85978
N          1.86259        6.13999       19.21023
N          3.15179        4.51522       20.62391
N          4.47887        3.47851       18.16601
H          5.04119        3.34245       19.00432
C          1.47333        7.79720       15.92039
H          1.95328        8.75046       16.14637
H          0.40038        7.97211       15.86631
H          1.83020        7.45447       14.95339
C          1.79566        6.80666       16.99947
C          1.26910        6.98912       18.32046
C          0.34315        7.93480       18.75457
H         -0.13083        8.59696       18.04846
C          0.04199        8.01852       20.10663
H         -0.67781        8.74295       20.45474
C          0.67751        7.18157       21.01338
H          0.46246        7.25364       22.06708
C          1.59725        6.24547       20.54642
C          2.36575        5.31321       21.31823
C          2.26677        5.30912       22.81263
H          2.96789        4.60258       23.24893
H          1.25567        5.04360       23.12046
H          2.47875        6.30510       23.20101
C          3.30220        5.67532       15.61005
C          2.78074        4.80670       14.64142
C          3.41289        4.73720       13.40854
H          3.01812        4.09421       12.63910
C          4.54013        5.48912       13.14215
H          5.01299        5.42777       12.17352
C          5.05668        6.32703       14.11114
H          5.94075        6.90331       13.89024
C          4.43906        6.45309       15.34559
C          3.96405        3.57848       21.30644
C          3.43360        2.35448       21.73777
C          4.25305        1.48739       22.44735
H          3.85390        0.54830       22.79832
C          5.56951        1.80712       22.71617
H          6.18709        1.12912       23.28591
C          6.09787        2.99189       22.24115
H          7.13214        3.22534       22.43740
C          5.31517        3.88766       21.52826
C          1.53040        4.00594       14.92805
H          1.52663        3.78443       15.99949
C          0.26777        4.81030       14.59585
H          0.13760        5.64153       15.28058
H         -0.60637        4.16747       14.67457
H          0.31958        5.19729       13.57983
C          1.48552        2.68137       14.16913
H          1.28032        2.83865       13.11274
H          0.69498        2.05439       14.57542
H          2.42518        2.15009       14.27405
C          4.98666        7.40003       16.39060
H          4.19159        7.62957       17.10627
C          5.46543        8.72366       15.79221
H          5.66687        9.43724       16.58886
H          4.70933        9.14580       15.13347
H          6.38233        8.59213       15.22413
C          6.11347        6.71207       17.16318
H          5.73583        5.79465       17.61310
H          6.48433        7.36774       17.94854
H          6.93547        6.46767       16.49489
C          2.01282        1.94901       21.42024
H          1.55052        2.73514       20.81484
C          1.18470        1.76268       22.69421
H          0.15340        1.53207       22.43635
H          1.19478        2.66183       23.30486
H          1.57685        0.94305       23.29140
C          2.00756        0.65805       20.59738
H          2.61892        0.77071       19.70577
H          0.99364        0.41685       20.28650
H          2.39306       -0.17641       21.17779
C          5.90181        5.18670       21.02429
H          5.22241        5.59791       20.26622
C          6.01107        6.19687       22.16920
H          5.03268        6.40087       22.59745
H          6.43046        7.13278       21.80676
H          6.65600        5.81157       22.95636
C          7.26389        4.97710       20.36102
H          8.02549        4.71401       21.09059
H          7.57705        5.89320       19.86613
H          7.20910        4.18551       19.61699
C          5.97858        0.93916       17.90393
C          5.88874        0.61366       19.25272
H          5.10654        1.05692       19.85108
C          6.78003       -0.26266       19.84376
H          6.68827       -0.49630       20.89512
C          7.78686       -0.83875       19.08810
H          8.48605       -1.52529       19.54415
C          7.89223       -0.52928       17.74276
H          8.67593       -0.97464       17.14576
C          6.99635        0.35062       17.16193
H          7.09185        0.58958       16.11157
C          5.52454        2.61359       15.45848
C          6.56413        3.53580       15.45438
H          6.85365        3.99404       16.38581
C          7.23441        3.86755       14.29423
H          8.03900        4.58784       14.30427
C          6.86354        3.26460       13.09994
C          5.84592        2.32141       13.07972
H          5.57159        1.84574       12.14964
C          5.19126        2.00568       14.25546
H          4.41076        1.26030       14.23302
C          3.12403        1.15967       16.86716
C          1.92225        1.64078       17.37155
H          1.93023        2.58939       17.90328
C          0.74166        0.93686       17.22162
H         -0.18308        1.33490       17.61681
C          0.74637       -0.28342       16.56663
H         -0.17230       -0.83980       16.44422
C          1.93778       -0.79293       16.07851
H          1.94962       -1.75200       15.57965
C          3.11275       -0.07841       16.23269
H          4.04035       -0.49596       15.86515
C          7.58214        3.61464       11.83428
F          8.65010        2.81923       11.60471
F          6.80674        3.50778       10.74051
F          8.05795        4.87287       11.83005
