60
CSD_code = CEZLOK | q = 0 | S = 0 | Stoichiometry = C21H36NSiY | MND = 12
Y          2.11858        7.22801        2.86887
Si         3.29435        7.34561       -0.38169
N          3.22095        5.90756        0.73601
C          2.38110        8.63266        0.62456
C          2.81459        9.89467        1.09110
C          1.77027       10.51271        1.79503
C          0.64908        9.66314        1.77869
C          0.99533        8.48391        1.06966
C          4.15596       10.51027        0.84031
H          4.31477       11.36053        1.49908
H          4.22387       10.86794       -0.18849
H          4.95844        9.79433        0.99937
C          1.85643       11.86400        2.43713
H          2.62995       11.88501        3.20677
H          0.91279       12.13760        2.90057
H          2.10020       12.62529        1.69638
C         -0.72081        9.96120        2.31907
H         -0.67954       10.72539        3.09205
H         -1.17838        9.06978        2.75309
H         -1.37628       10.32333        1.52405
C         -0.02061        7.55179        0.44169
H          0.38574        6.55436        0.26316
H         -0.34209        7.96188       -0.51975
H         -0.90941        7.45918        1.06719
C          2.44844        6.94505       -2.05507
H          2.95450        6.14958       -2.59325
H          2.47710        7.82964       -2.68261
H          1.40707        6.66559       -1.94925
C          5.09369        7.75531       -0.88062
H          5.76359        7.83149       -0.03169
H          5.12092        8.70412       -1.40300
H          5.49305        7.00383       -1.55488
C          2.74938        4.65079        0.15494
H          1.95556        4.82287       -0.56835
H          2.36212        4.01266        0.95795
C          3.98524        3.99038       -0.47412
H          3.90948        2.90482       -0.45701
H          4.09406        4.30838       -1.51021
C          5.15163        4.50965        0.37941
H          5.89080        5.02015       -0.23479
H          5.65446        3.70708        0.91623
C          4.48553        5.49434        1.35878
H          4.26282        4.96246        2.29837
H          5.11522        6.35632        1.58526
C          3.62367        7.94358        4.51770
H          3.17261        8.73014        5.13754
H          3.93629        7.12316        5.17994
C          4.79593        8.48552        3.81093
H          4.71570        9.52097        3.49125
C          5.93170        7.82768        3.56603
H          6.08086        6.81083        3.89792
H          6.75258        8.28248        3.03789
C          1.41975        3.52994        3.49958
H          1.48166        2.60410        2.95329
H          2.02476        3.60254        4.39147
C          0.63225        4.53642        3.10995
H          0.02311        4.40403        2.21681
C          0.48653        5.82497        3.80708
H          0.65207        5.68559        4.88387
H         -0.52592        6.22021        3.66126
