101
CSD_code = CITQII | q = 0 | S = 0 | Stoichiometry = C37H56FeN4P2Si | MND = 6
Fe         2.12515        3.06244        2.05451
H          3.45887        3.02303        2.67465
P          3.17955        4.52417        0.79219
P          1.61816        1.94193        3.88067
Si         1.87370        4.85085        3.41141
N          0.60317        3.23896        1.36256
N         -0.38723        3.34004        0.84508
N          2.46688        1.65531        1.16702
N          2.63806        0.69409        0.61884
C          0.29376        5.96775        3.59389
H          0.48327        6.97099        3.23094
H          0.01069        6.03574        4.63789
H         -0.55990        5.57601        3.05096
C          3.91820        5.85524        1.78711
C          3.27891        6.08400        3.00650
C          3.68318        7.15956        3.77919
H          3.17170        7.37052        4.70507
C          4.72972        7.97191        3.37754
H          5.03961        8.80362        3.99411
C          5.38546        7.71314        2.18588
H          6.21279        8.33510        1.87471
C          4.97476        6.66328        1.38267
H          5.49504        6.48400        0.45269
C          1.82067        2.90475        5.40557
C          2.05548        4.26460        5.22287
C          2.21438        5.06456        6.34279
H          2.37624        6.12409        6.22224
C          2.15929        4.52629        7.61633
H          2.29840        5.16085        8.48005
C          1.90244        3.17538        7.78743
H          1.83446        2.75691        8.78160
C          1.72333        2.36350        6.68270
H          1.49481        1.31728        6.82375
C          2.20811        5.49550       -0.47704
H          1.68743        4.73134       -1.07527
C          3.03448        6.39210       -1.39876
H          3.54476        7.14937       -0.79901
H          3.78556        5.81800       -1.94271
C          2.12387        7.08761       -2.41018
H          2.72613        7.72013       -3.06644
H          1.63137        6.33506       -3.03118
C          1.06791        7.92701       -1.70057
H          1.55830        8.71574       -1.12484
H          0.41425        8.40333       -2.43409
C          0.25020        7.04891       -0.76059
H         -0.29356        6.29924       -1.34006
H         -0.48358        7.65363       -0.22413
C          1.16144        6.34597        0.24117
H          0.55893        5.72142        0.89948
H          1.66901        7.09119        0.86080
C          4.61434        3.88505       -0.20338
H          5.14454        4.76136       -0.60035
C          5.57190        3.12076        0.70783
H          5.86488        3.75554        1.54970
H          5.06134        2.24631        1.11651
C          6.79981        2.66692       -0.07483
H          7.34437        3.54088       -0.44253
H          7.46984        2.10868        0.58221
C          6.37886        1.79501       -1.25425
H          5.88310        0.89719       -0.87901
H          7.25835        1.48270       -1.82145
C          5.41679        2.55480       -2.16230
H          5.10874        1.91826       -2.99439
H          5.92502        3.42852       -2.58027
C          4.18521        3.00683       -1.37952
H          3.65414        2.12713       -1.01407
H          3.50936        3.55156       -2.04314
C         -0.09656        1.26919        4.09781
H         -0.11045        0.67271        5.01993
C         -1.08116        2.42742        4.24633
H         -0.81214        3.03715        5.11380
H         -1.02594        3.06671        3.36269
C         -2.50441        1.89686        4.39530
H         -2.57768        1.30455        5.31132
H         -3.20057        2.73347        4.48138
C         -2.87665        1.02890        3.19676
H         -2.84558        1.63611        2.28967
H         -3.89299        0.64710        3.31363
C         -1.89646       -0.13177        3.05655
H         -2.15938       -0.74042        2.18909
H         -1.95521       -0.76852        3.94363
C         -0.47348        0.39709        2.90131
H         -0.41289        0.99407        1.98817
H          0.22873       -0.43421        2.79301
C          2.72489        0.44714        4.11790
H          2.86237        0.07240        3.09154
C          2.23617       -0.72586        4.96957
H          2.14509       -0.42959        6.01543
H          1.26492       -1.08667        4.62784
C          3.24906       -1.86807        4.87707
H          2.90120       -2.71261        5.47674
H          3.32221       -2.20248        3.83937
C          4.62311       -1.41653        5.36158
H          5.33637       -2.23869        5.27386
H          4.56211       -1.13775        6.41653
C          5.10367       -0.21735        4.55033
H          5.23467       -0.51227        3.50634
H          6.07026        0.12556        4.92546
C          4.08748        0.91671        4.63186
H          4.42905        1.76939        4.04045
H          3.99321        1.24943        5.66883
