91
CSD_code = COFNES | q = 0 | S = 0 | Stoichiometry = C39H46MoO4Si | MND = 10
Mo         9.80810       -1.97776       12.48309
Si        11.91266        0.44442       15.23339
O          9.38251       -0.47409        9.83667
O         12.26765       -0.40936       11.51599
O         10.24832       -1.57058       14.61648
O         10.50291        0.61225       14.34478
C          9.49131       -0.99805       10.86134
C         11.37574       -0.99178       11.96187
C          9.75621       -0.48086       14.21236
C          8.46894       -0.49362       13.61287
H          7.78711       -1.16701       14.13847
C          7.74704        0.78267       13.21104
C          8.64223        1.78724       12.48184
H          9.13803        1.32375       11.63221
H          9.40179        2.18175       13.15015
H          8.03813        2.61619       12.11781
C          7.20210        1.44901       14.48571
H          6.64923        2.35136       14.23371
H          8.02427        1.72244       15.14387
H          6.53415        0.77631       15.02158
C          6.57412        0.40275       12.29973
H          6.00118        1.28670       12.02939
H          5.90609       -0.29545       12.80050
H          6.94440       -0.06239       11.38901
C         13.20368       -0.78709       14.58277
C         13.21684       -2.11530       14.99938
H         12.47847       -2.44950       15.71270
C         14.15791       -3.00769       14.51869
H         14.15351       -4.03334       14.86658
C         15.11893       -2.60322       13.60214
C         15.12486       -1.27286       13.19914
H         15.87152       -0.93679       12.49351
C         14.19066       -0.38049       13.68658
H         14.21979        0.64967       13.36353
C         16.13729       -3.56299       13.06482
H         17.13351       -3.28802       13.41098
H         16.14599       -3.53789       11.97617
H         15.92854       -4.57964       13.39012
C         11.44984       -0.02318       17.00767
C         12.43624       -0.36394       17.93091
H         13.47073       -0.36189       17.61802
C         12.11457       -0.71119       19.22812
H         12.89831       -0.97227       19.92605
C         10.78998       -0.73462       19.65116
C          9.80108       -0.39857       18.73676
H          8.76402       -0.41221       19.04423
C         10.12779       -0.04694       17.43988
H          9.33963        0.20748       16.74453
C         10.45043       -1.09919       21.06458
H         11.02662       -1.96395       21.38868
H          9.39118       -1.32249       21.16702
H         10.69074       -0.27052       21.73128
C         12.59133        2.19574       15.07408
C         13.29220        2.78254       16.12117
H         13.39902        2.24122       17.04976
C         13.84555        4.04195       15.99502
H         14.38422        4.47950       16.82445
C         13.72112        4.75712       14.80935
C         13.02701        4.17401       13.75741
H         12.92228        4.71162       12.82502
C         12.47390        2.91384       13.88763
H         11.94236        2.47285       13.05680
C         14.30761        6.13065       14.68324
H         13.65942        6.85916       15.17161
H         14.41181        6.41523       13.63902
H         15.28352        6.17925       15.16230
C         10.57185       -4.17094       12.19944
C          9.92125       -4.13883       13.45240
C          8.54942       -3.78521       13.24840
C          8.34090       -3.61841       11.86165
C          9.61222       -3.82043       11.19732
C         11.97637       -4.62647       11.94673
H         12.02076       -5.71800       11.93321
H         12.64954       -4.26008       12.71940
H         12.33458       -4.25715       10.98826
C         10.48178       -4.59336       14.76092
H         10.30519       -3.84964       15.53838
H         11.55171       -4.76753       14.68574
H          9.99540       -5.52430       15.06241
C          7.49713       -3.88573       14.31327
H          6.58101       -3.37648       14.01791
H          7.85005       -3.45849       15.25285
H          7.25324       -4.93595       14.49408
C          7.01887       -3.49283       11.16865
H          6.62206       -4.48597       10.94535
H          7.11730       -2.94831       10.23153
H          6.29570       -2.96940       11.79034
C          9.78374       -4.04404        9.72119
H         10.79422       -3.79102        9.40308
H          9.08754       -3.43341        9.14847
H          9.59835       -5.09328        9.47967
