124
CSD_code = COJRIF | q = 0 | S = 0 | Stoichiometry = C50H67N3OPScSi | MND = 5
Sc        10.61339        4.75803       24.70125
P         11.35925        2.36940       25.68526
Si        13.63869        1.92121       23.37750
O          9.60029        5.57184       23.35370
N          9.40157        5.34850       26.34205
N         11.88972        6.38790       25.15049
N         11.04289        3.21987       23.32224
C         12.52056        1.32996       26.63220
C         13.23169        6.38721       24.69584
C          9.98126        1.12744       25.71349
C          9.11768        6.63801       26.38596
C         12.68332       -0.01206       26.30242
H         12.11543       -0.42879       25.48375
C          9.98777        7.63623       25.93806
H          9.62762        8.64902       26.05767
C         14.24527        6.00907       25.59912
C         13.23261        1.86035       27.69880
H         13.09180        2.89749       27.96072
C          7.01109        4.27920       25.04553
H          7.58645        5.16200       24.73995
C         11.28534        7.53244       25.42440
C          7.41234        3.90202       26.45390
C         11.89284        2.30561       23.95644
C         14.10950        1.06883       28.41862
H         14.66132        1.48867       29.24767
C          7.81105        7.11981       26.98102
H          7.07807        7.22924       26.18172
H          7.93208        8.08890       27.45884
H          7.41883        6.40744       27.70342
C         10.62264        3.11896       22.08076
C          9.24181        5.19092       22.16172
C         14.88766        6.68876       22.97691
H         15.15022        6.95307       21.96360
C          8.14411        3.17829       29.04224
H          8.40601        2.89893       30.05098
C         10.22795        4.61030       28.93400
H         10.90335        4.84537       28.09833
C         12.50785        7.17207       22.37346
H         11.53293        7.21498       22.87360
C          6.64937        3.00172       27.18301
H          5.76119        2.57472       26.74339
C          9.41006        0.82056       26.94416
H          9.79179        1.29716       27.83691
C         14.94897        2.13714       24.75335
H         14.73451        3.01448       25.35508
H         15.93457        2.27067       24.31784
H         14.99568        1.27993       25.41468
C          7.37899        3.13543       24.09648
H          8.46458        2.98827       24.10264
H          7.06794        3.36746       23.07976
H          6.90303        2.20744       24.40891
C          9.49406        0.50915       24.56977
H          9.94019        0.73711       23.61239
C         10.93300        3.62277       29.86408
H         11.92540        3.99499       30.11164
H         11.04092        2.64927       29.39095
H         10.38635        3.49988       30.79632
C         10.98582        1.94811       21.20452
H         11.81034        2.18635       20.53498
H         10.13011        1.66464       20.59422
H         11.29023        1.10523       21.82264
C         13.83528        0.12692       22.71881
H         13.35863       -0.59866       23.37034
H         14.88865       -0.13052       22.66393
H         13.42008        0.00030       21.72369
C          9.93711        5.91154       29.68859
H          9.17511        5.74650       30.44837
H          9.58942        6.68159       29.00660
H         10.84027        6.27099       30.17772
C         12.82128        8.55187       21.78545
H         13.69557        8.50690       21.14023
H         13.01703        9.28108       22.56750
H         11.98085        8.90076       21.18880
C         12.40370        6.14184       21.24667
H         11.62083        6.42818       20.54730
H         12.15616        5.16615       21.65983
H         13.34241        6.06342       20.70211
C         14.25429        3.11642       22.01675
H         13.58852        3.18207       21.16497
H         15.22135        2.78852       21.64646
H         14.37898        4.11784       22.41797
C          8.24830        6.09597       21.46238
H          7.34961        6.19115       22.07115
H          7.98092        5.71204       20.48280
H          8.67803        7.09156       21.35464
C          8.37303       -0.08735       27.02986
H          7.94033       -0.32229       27.99143
C          8.95777        4.04852       28.33298
C          8.57614        4.42959       27.03360
C         13.87852        5.66422       27.02837
H         12.97607        5.03081       26.97877
C         13.55865        6.74481       23.37571
C         15.55940        5.97996       25.15872
H         16.35121        5.69923       25.83360
C         14.27917       -0.26215       28.07672
H         14.96539       -0.88155       28.63580
C         13.56309       -0.80058       27.01865
H         13.69240       -1.84057       26.75478
C         15.88287        6.31302       23.85630
H         16.91187        6.28215       23.53028
C          5.52310        4.61832       24.93470
H          4.90734        3.73073       25.05581
H          5.31039        5.04109       23.95480
H          5.23471        5.34254       25.69381
C         11.99879        8.85851       25.25597
H         13.06377        8.72063       25.08772
H         11.85781        9.47526       26.14170
H         11.57320        9.39453       24.40930
C          9.70713        4.06573       21.53211
H          9.35977        3.86715       20.52919
C          6.99644        2.65699       28.47475
H          6.37360        1.97899       29.03937
C         14.97466        4.90732       27.77822
H         15.30422        4.02839       27.22976
H         14.59824        4.58287       28.74677
H         15.83160        5.55257       27.96070
C         13.53048        6.92806       27.82528
H         14.34281        7.64970       27.75783
H         13.38190        6.67552       28.87347
H         12.61935        7.38728       27.45667
C          8.45309       -0.39808       24.65461
H          8.08221       -0.87595       23.75855
C          7.88865       -0.69624       25.88320
H          7.07505       -1.40437       25.94813
