57
CSD_code = COJWAA | q = 0 | S = 0 | Stoichiometry = C12H36BBr2NP3RhSi | MND = 6
Rh        -0.11029        2.24283        3.50307
Br        -1.34950        0.93830        5.35314
Br         1.56237        0.56302        2.69176
P         -1.31937        4.16871        3.73610
P          1.39573        2.68161        5.19099
P         -1.60662        1.17173        2.11442
Si         1.97103        5.13001        0.04063
B          0.81409        3.30456        2.08041
N          1.29177        4.09864        1.22201
C         -0.38323        5.70657        4.09710
H         -1.07436        6.54672        4.16663
H          0.31240        5.87010        3.27425
H          0.17960        5.63173        5.02395
C          0.78305        3.39754        6.76934
H          1.63331        3.59766        7.42087
H          0.13058        2.66382        7.24211
H          0.22242        4.31711        6.61981
C         -2.18423        4.79873        2.24333
H         -2.70518        5.72486        2.48650
H         -2.89997        4.07951        1.85378
H         -1.42803        4.99109        1.48248
C         -2.64519        4.21727        5.00115
H         -3.13713        5.18951        4.99856
H         -2.21593        4.01905        5.98237
H         -3.37082        3.43132        4.79616
C         -3.40419        1.29409        2.47885
H         -3.96066        0.78909        1.68966
H         -3.74484        2.32392        2.55466
H         -3.59039        0.79378        3.42897
C          2.83277        3.75028        4.79246
H          3.50229        3.81624        5.64968
H          2.50370        4.74569        4.50093
H          3.36304        3.30635        3.95013
C          2.24892        1.21839        5.88037
H          2.79140        1.51848        6.77737
H          2.94069        0.80588        5.14848
H          1.51452        0.45470        6.13708
C         -1.47117       -0.65163        2.07298
H         -2.33169       -1.05539        1.53868
H         -1.45945       -1.04056        3.09137
H         -0.55089       -0.95004        1.57449
C         -1.52766        1.55451        0.32213
H         -2.23348        0.93207       -0.22723
H         -0.51507        1.34862       -0.02438
H         -1.74096        2.60619        0.14172
C          3.73338        4.56612       -0.39728
H          3.73782        3.53729       -0.74349
H          4.39072        4.62169        0.46536
H          4.16322        5.18297       -1.18095
C          2.00391        6.89653        0.76994
H          1.00404        7.25808        0.99495
H          2.45340        7.59603        0.07224
H          2.58259        6.93454        1.68853
C          0.84544        5.10381       -1.49953
H         -0.16052        5.44358       -1.26794
H          0.76662        4.10105       -1.90838
H          1.23659        5.74830       -2.28073
