80
CSD_code = COQKID | q = 0 | S = 0 | Stoichiometry = C38H36N4SiZr | MND = 13
Zr        17.06165       17.25670       12.95269
Si        17.58305       16.06394       15.70949
N         17.98626       19.36107       13.72942
N         17.52380       17.66105       15.04019
N         16.89974       15.52760       14.21870
N         16.13726       14.52701       12.38301
C         18.30742       20.68291       13.47283
C         18.30012       21.11651       12.13926
H         18.07425       20.39914       11.36138
C         18.56285       22.43298       11.82074
H         18.56011       22.74278       10.78534
C         18.82195       23.35996       12.81803
H         19.02874       24.38920       12.56684
C         18.78824       22.95506       14.14206
H         18.95894       23.67433       14.93044
C         18.52780       21.63988       14.47188
H         18.47232       21.34975       15.51062
C         18.26611       18.72934       14.86558
C         19.35520       19.07271       15.81010
C         20.61693       19.42163       15.33469
H         20.78292       19.49928       14.27014
C         21.64985       19.66192       16.22149
H         22.62696       19.92908       15.84708
C         21.43471       19.56123       17.58662
H         22.24231       19.75479       18.27687
C         20.18266       19.21021       18.06465
H         20.01323       19.13039       19.12847
C         19.14905       18.95857       17.18140
H         18.16858       18.68338       17.53985
C         19.31606       15.32585       16.07633
H         19.23743       14.45646       16.72063
H         19.94955       16.05137       16.57774
H         19.81878       15.01440       15.16548
C         16.54185       15.96620       17.31358
H         17.04244       16.47424       18.13136
H         16.39427       14.93481       17.61436
H         15.56576       16.42460       17.18634
C         16.37123       14.44593       13.66353
C         16.12472       13.21765       14.46615
C         16.71266       12.01174       14.10179
H         17.34745       11.97115       13.22857
C         16.48406       10.87258       14.85190
H         16.94600        9.93913       14.56562
C         15.65977       10.92528       15.96346
H         15.47794       10.03337       16.54490
C         15.06279       12.12202       16.32378
H         14.41071       12.16290       17.18441
C         15.29560       13.26476       15.58045
H         14.82343       14.19902       15.84569
C         15.45219       13.53995       11.69177
C         15.97067       13.06640       10.48327
H         16.93633       13.42161       10.15369
C         15.27477       12.13932        9.73385
H         15.69593       11.77716        8.80644
C         14.04395       11.67021       10.16326
H         13.50109       10.94622        9.57399
C         13.51451       12.14034       11.35378
H         12.55288       11.78329       11.69475
C         14.20625       13.06347       12.11164
H         13.78454       13.43549       13.03477
C         15.37685       19.16418       12.63528
H         15.58075       20.22380       12.71772
C         14.88654       18.33769       13.66738
H         14.67219       18.65230       14.68205
C         14.58089       17.07726       13.10844
H         14.07227       16.26562       13.61429
C         14.90050       17.11915       11.73189
H         14.66283       16.35168       11.00543
C         15.40141       18.41009       11.44326
H         15.59391       18.80299       10.45158
C         18.42766       17.64146       10.82832
H         18.16974       18.29552       10.00353
C         19.36991       17.92270       11.83721
H         19.93387       18.84017       11.93414
C         19.57582       16.75045       12.58781
H         20.31099       16.62923       13.37463
C         18.79689       15.72315       12.01272
H         18.84124       14.67392       12.27580
C         18.07672       16.27520       10.92838
H         17.48081       15.72365       10.21199
