36
CSD_code = COXHEC | q = 0 | S = 0 | Stoichiometry = C14H20SiZr | MND = 12
Zr        -1.32861        2.95249        3.16318
Si         1.01591        2.95250        1.34736
C          0.89785        2.95251        3.25777
C         -0.86329        2.95251        0.98380
C          1.91963        1.40555        0.64688
C         -1.15931        0.81129        4.48233
C         -2.39129        1.37983        4.86993
C         -3.24713        1.37481        3.74981
C         -2.54705        0.80218        2.66655
C         -1.25934        0.44374        3.12233
H          1.35904        2.06408        3.70811
H         -1.18379        2.06417        0.42443
H          1.88761        1.38476       -0.43721
H          2.96214        1.38616        0.94600
H          1.45516        0.49344        1.00854
H         -0.34304        0.55807        5.14995
H         -2.67579        1.63373        5.88424
H         -4.30160        1.62475        3.75596
H         -2.97568        0.54003        1.70556
H         -0.51394       -0.09943        2.55535
C         -1.15927        5.09372        4.48231
C         -2.39124        4.52518        4.86995
C         -3.24712        4.53019        3.74985
C         -2.54706        5.10281        2.66657
C         -1.25934        5.46125        3.12231
H          1.35904        3.84092        3.70812
C          1.91963        4.49946        0.64688
H         -1.18380        3.84086        0.42443
H         -0.34299        5.34694        5.14991
H         -2.67571        4.27129        5.88427
H         -4.30158        4.28026        3.75603
H         -2.97571        5.36494        1.70558
H         -0.51397        6.00445        2.55532
H          1.88761        4.52024       -0.43721
H          2.96215        4.51884        0.94598
H          1.45517        5.41158        1.00854
