67
CSD_code = DELTOE | q = 0 | S = 0 | Stoichiometry = C24H41ScSi | MND = 11
C          0.75896       -0.08941        7.30978
C          0.59614       -1.39603        8.02924
H          1.50383       -1.67622        8.55701
H          0.33470       -2.19960        7.34547
H         -0.20648       -1.30738        8.76608
C          1.60761        0.98716        7.71047
C          2.54614        1.00613        8.88381
H          3.47026        1.53522        8.64929
H          2.79880        0.00080        9.21205
H          2.07550        1.52158        9.72511
C          1.22005        2.14736        6.99277
C          1.69327        3.53023        7.34911
H          1.46388        3.73505        8.39750
H          1.19637        4.28805        6.74850
H          2.77270        3.63832        7.22648
C          0.13071        1.79734        6.14280
C         -0.86143        2.74423        5.52603
H         -1.19775        2.40474        4.54797
H         -0.45702        3.74811        5.43137
H         -1.74295        2.80072        6.17115
C         -0.13279        0.40899        6.32184
C         -1.36079       -0.29573        5.81532
H         -2.21582       -0.06183        6.45524
H         -1.22987       -1.37581        5.81951
H         -1.61372        0.01715        4.80262
C          3.77850        0.64320        3.58664
C          5.11260       -0.01436        3.38664
H          5.50985        0.27057        2.40870
H          5.03568       -1.09783        3.41322
H          5.83139        0.30451        4.13893
C          3.58324        1.96118        4.08407
C          4.67194        2.86687        4.58978
H          5.23602        3.28294        3.75113
H          5.37424        2.33043        5.22781
H          4.26074        3.69975        5.15720
C          2.26142        2.36983        3.75310
C          1.82727        3.80939        3.71282
H          2.04492        4.33074        4.64292
H          0.76693        3.90437        3.49674
H          2.37503        4.32048        2.91598
C          1.61929        1.27801        3.09324
C          0.32320        1.31942        2.32830
H          0.52839        1.26300        1.25668
H         -0.21783        2.24427        2.51215
H         -0.32865        0.48068        2.58058
C          2.55460        0.21539        2.99167
C          2.39406       -0.98318        2.10212
H          1.35102       -1.28339        2.02525
H          2.97110       -1.82865        2.46646
H          2.74648       -0.74348        1.09512
C          3.46951       -1.16762        6.10341
H          4.50110       -0.93536        5.80768
H          3.46915       -1.11605        7.20021
C          3.00313       -4.17133        7.08810
H          3.97006       -4.24169        7.57686
H          2.73180       -5.17002        6.75893
H          2.27965       -3.86779        7.83707
C          1.34216       -2.98504        4.74602
H          0.60516       -3.51575        5.34111
H          1.38016       -3.47572        3.77883
H          0.97906       -1.96223        4.58999
C          4.34084       -3.74778        4.41043
H          4.32976       -3.29613        3.42367
H          4.13329       -4.80575        4.28099
H          5.35094       -3.66017        4.79848
Si         3.06813       -2.94886        5.60762
Sc         2.12406        0.48949        5.37973
