78
CSD_code = DOKXOS | q = 0 | S = 0 | Stoichiometry = C28H43MoO3PSSi | MND = 9
Mo         0.80126        0.71331        5.16467
Si         4.37592        3.35352        6.34614
P          2.01296        1.47711        7.08900
S          0.51316        2.78004        6.74874
O          1.49110        2.70602        2.93484
O          3.61161        0.32925        3.96953
O          3.36538        2.28654        7.15867
C          1.23450        2.00871        3.81470
C          2.55557        0.42608        4.43598
C         -0.75353       -0.45860        3.94056
H         -0.85877       -0.54156        2.86536
C         -1.43189        0.46005        4.77315
H         -2.12539        1.22126        4.44199
C         -1.20618        0.07749        6.11745
H         -1.69570        0.50522        6.98631
C         -0.40485       -1.07872        6.11981
H         -0.16442       -1.67354        6.98894
C         -0.10671       -1.40482        4.78067
H          0.37724       -2.31318        4.43981
C          1.71765        0.59902        8.67864
C          1.91627       -0.80092        8.65111
C          1.02094       -1.61324        9.33134
H          1.14487       -2.68306        9.26981
C         -0.05104       -1.10527       10.05402
C         -0.04968        0.26043       10.27736
H         -0.77271        0.68275       10.95321
C          0.83893        1.12671        9.64869
C          3.14575       -1.49071        8.06197
C          4.20001       -0.51686        7.54478
H          5.12046       -1.05846        7.33276
H          4.41716        0.25167        8.28311
H          3.88407       -0.04404        6.61852
C          3.80643       -2.28627        9.20590
H          4.74485       -2.71445        8.86043
H          3.18074       -3.10082        9.55795
H          4.01700       -1.62985       10.04761
C          2.77697       -2.45035        6.92560
H          2.40012       -1.89020        6.07039
H          2.02407       -3.17126        7.23509
H          3.66085       -2.99896        6.60781
C         -1.09743       -2.04514       10.62783
C         -0.43086       -2.97316       11.65298
H          0.33553       -3.58942       11.19047
H         -1.17307       -3.63119       12.09974
H          0.03395       -2.38809       12.44387
C         -2.23841       -1.29698       11.32256
H         -1.88249       -0.76449       12.20148
H         -2.99359       -2.00902       11.64902
H         -2.71195       -0.59052       10.64432
C         -1.70037       -2.87792        9.48717
H         -2.16514       -2.22716        8.74863
H         -2.46078       -3.55113        9.87709
H         -0.94441       -3.47902        8.98837
C          0.90504        2.54356       10.21223
C          2.05142        3.37287        9.63789
H          1.85201        3.68128        8.61678
H          2.98335        2.81239        9.66700
H          2.17679        4.27624       10.23243
C          1.19407        2.39587       11.72088
H          2.10722        1.82415       11.87575
H          0.38695        1.89773       12.24958
H          1.32569        3.38047       12.16423
C         -0.41468        3.30007       10.02601
H         -0.33978        4.28481       10.48146
H         -1.24508        2.77336       10.48954
H         -0.63146        3.42725        8.96858
C          4.99392        4.46327        7.76511
H          4.19923        5.08161        8.17158
H          5.77459        5.12380        7.40390
H          5.40827        3.88135        8.58306
C          3.40454        4.33288        5.04186
H          3.40689        3.82645        4.08005
H          3.82635        5.32115        4.88812
H          2.36513        4.45736        5.34197
C          5.77298        2.29240        5.61333
H          6.26721        1.69703        6.37617
H          6.52354        2.92570        5.15249
H          5.40365        1.61108        4.85177
