65
CSD_code = DOWDOJ | q = 0 | S = 0 | Stoichiometry = C26H30CoNO5SSi | MND = 8
C          3.96302        1.20907       17.50029
C          3.09461        0.24946       17.22096
C          3.02928       -0.83373       18.25366
H          3.38900       -1.79310       17.87487
C          3.97339        4.02358       17.57073
C          3.07597        3.97803       18.62153
H          2.42745        3.12270       18.73255
C          3.03487        5.03549       19.51543
H          2.34451        5.01266       20.34479
C          3.88154        6.12060       19.34509
H          3.84805        6.94333       20.04447
C          4.77060        6.15749       18.28237
H          5.42642        7.00561       18.15282
C          4.81819        5.10029       17.38765
H          5.50238        5.08961       16.55345
C          0.37657        1.01549       15.72384
H          0.51004        2.07571       15.54808
H         -0.07422        0.88461       16.70328
H         -0.31270        0.62506       14.98065
C          3.14386        0.32389       14.08987
H          2.64254        0.95775       13.36698
H          3.37213       -0.62128       13.60451
H          4.07573        0.81715       14.34471
C          1.58717       -1.77189       15.62605
H          0.96839       -2.03828       16.47631
H          2.45782       -2.42095       15.63220
H          1.01904       -2.00875       14.73300
C          1.62788       -1.03650       18.83206
C          0.38998       -2.49463       20.21503
H         -0.35446       -2.86076       19.49983
H          0.00918       -1.57405       20.66904
C          0.71359       -3.54499       21.26053
H          1.10310       -4.43972       20.78285
H         -0.18640       -3.79852       21.81282
H          1.46408       -3.16800       21.95031
C          4.26468       -1.47408       20.26857
C          4.99006       -2.55347       19.77235
H          5.27794       -2.58137       18.73179
C          5.36866       -3.57164       20.62625
H          5.93443       -4.40680       20.24196
C          5.03128       -3.52264       21.97002
H          5.32874       -4.32248       22.63083
C          4.31833       -2.44301       22.46256
H          4.05736       -2.39754       23.50941
C          3.93270       -1.41880       21.61708
H          3.37607       -0.56740       21.97856
C          6.99329        0.65722       18.70469
H          7.46056       -0.03536       18.02337
C          6.86755        0.48700       20.10606
H          7.16162       -0.38690       20.66649
C          6.38373        1.68774       20.65243
H          6.24553        1.88967       21.70225
C          6.21623        2.62339       19.60103
H          5.99706        3.67201       19.72316
C          6.61387        1.98956       18.39516
H          6.71847        2.46053       17.43147
N          3.87339       -0.40992       19.40255
O          3.43237        0.68905       20.00117
O          1.59287       -2.18853       19.49933
O          0.71644       -0.26471       18.75248
O          5.22593        2.68466       15.66616
O          2.76934        2.68511       15.67315
Si         2.04309        0.09922       15.63163
S          4.00005        2.63379       16.43188
Co         4.98274        1.00756       19.11383
