92
CSD_code = EGATUE | q = 0 | S = 0 | Stoichiometry = C35H52CoNP2Si | MND = 4
C          2.66839       11.04409        2.89481
C          3.85961       10.85042        2.17313
C          4.66727       11.91352        1.80258
H          5.60423       11.73348        1.29406
C          4.29414       13.20933        2.11400
C          3.05740       13.41188        2.72253
H          2.75000       14.43093        2.90007
C          2.23065       12.37047        3.09409
C          0.82550       12.56412        3.61936
C          0.60903       11.50276        4.67544
C         -0.13160       11.71470        5.82173
H         -0.51422       12.70030        6.03741
C         -0.41125       10.69994        6.73263
C          0.02420        9.41888        6.44089
H         -0.19892        8.61253        7.12493
C          0.76606        9.17741        5.29611
C          1.13170       10.21679        4.42353
C          5.16954       14.38018        1.77677
H          6.04646       14.06120        1.21788
H          5.50436       14.87875        2.68681
H          4.62379       15.11052        1.17985
C         -1.17257       10.99363        7.99157
H         -1.64652       10.09394        8.37862
H         -1.93967       11.74510        7.81441
H         -0.49895       11.37805        8.75913
C         -0.14954       12.27030        2.45730
H          0.01181       12.97629        1.64431
H         -1.17921       12.35563        2.80056
H          0.00235       11.26345        2.07333
C          0.56065       13.98187        4.12312
H          1.22504       14.23272        4.94764
H         -0.47024       14.07848        4.45522
H          0.70494       14.69969        3.31918
C          3.62257        9.18446       -0.11288
H          3.58314        8.14044       -0.44279
C          4.59652        9.95327       -0.99840
H          4.22294        9.95541       -2.02193
H          5.58412        9.49890       -1.00521
H          4.68073       10.98721       -0.67137
C          2.22353        9.78711       -0.22074
H          2.25486       10.85571       -0.01120
H          1.54699        9.31861        0.49358
H          1.81981        9.64327       -1.22179
C          5.90187        8.84208        1.74212
H          6.37881        9.59798        1.10752
C          6.24409        7.44912        1.22832
H          7.32028        7.28494        1.26937
H          5.91460        7.31622        0.19982
H          5.75436        6.69743        1.84352
C          6.36819        9.03037        3.18214
H          5.85028        8.32611        3.83297
H          6.14858       10.03946        3.52855
H          7.44022        8.85811        3.26691
C         -0.29687        6.70970        4.28894
H         -0.00383        5.76426        3.81760
C         -1.01050        7.57930        3.25628
H         -1.85787        7.04782        2.82559
H         -0.32958        7.85401        2.45088
H         -1.37744        8.49432        3.72067
C         -1.22599        6.40506        5.45789
H         -1.56110        7.32080        5.93887
H         -0.75098        5.76460        6.19690
H         -2.10637        5.88352        5.08290
C          1.91685        6.72319        6.25188
H          1.11482        6.76077        6.99814
C          3.11470        7.51560        6.76670
H          3.53588        7.04624        7.65459
H          2.82283        8.53488        7.01704
H          3.88684        7.56095        5.99822
C          2.29143        5.27403        5.97049
H          3.08531        5.23478        5.22861
H          1.44387        4.70967        5.58599
H          2.64331        4.79032        6.88103
C          1.78728        4.69909        2.21867
C          0.49347        4.23517        2.01433
H         -0.21987        4.86831        1.50609
C          0.10603        2.97579        2.43725
H         -0.90633        2.63569        2.26817
C          1.01580        2.14985        3.07524
H          0.71624        1.16693        3.40970
C          2.31415        2.58920        3.27402
H          3.03231        1.94577        3.76259
C          2.68918        3.85006        2.84786
H          3.70449        4.18579        3.00169
Co         2.69924        8.11029        3.08685
N          2.03086        9.94550        3.41883
P          4.06680        9.12403        1.70666
P          1.31393        7.56310        4.70858
Si         2.32735        6.41495        1.61479
H          3.67368        7.13529        3.49168
H          1.22582        6.84882        0.69520
H          3.41644        6.04828        0.66397
