50
CSD_code = EGIFUW | q = -1 | S = 0 | Stoichiometry = C24H19OS4SiW(1-) | MND = 5
W         11.97518       11.55170       14.31489
S          9.76432       11.40421       14.37302
S         12.74224        9.86802       13.11673
S         14.01893       12.95916       14.68622
S         11.71104       13.10335       12.47776
C         14.37260       13.51546       13.06170
C         13.36934       13.56929       12.08500
C         13.67482       14.02957       10.81100
H         12.88536       14.06346       10.07601
C         14.96213       14.42328       10.49635
H         15.18989       14.76747        9.49745
C         15.95528       14.37563       11.46276
H         16.96341       14.68402       11.22319
C         15.65971       13.93184       12.73699
H         16.42031       13.89023       13.50212
O         12.46993       11.20204       16.15580
Si        11.54513       11.18306       17.45810
C         12.65800       11.04779       18.98785
C         12.18890       10.53269       20.18860
H         11.17572       10.16215       20.24320
C         13.00155       10.47444       21.30661
H         12.62015       10.06810       22.23409
C         14.30603       10.93423       21.23841
H         14.94359       10.88894       22.11123
C         14.79090       11.44702       20.04705
H         15.81012       11.80356       19.98758
C         13.97091       11.50310       18.93450
H         14.34652       11.89799       18.00118
C         10.60498       12.84287       17.54236
C          9.77714       13.19941       18.60107
H          9.67233       12.52515       19.43906
C          9.09221       14.40152       18.59814
H          8.44621       14.65752       19.42731
C          9.22844       15.27544       17.53288
H          8.68670       16.21115       17.52550
C         10.06343       14.94809       16.47735
H         10.18005       15.62427       15.64277
C         10.74273       13.74423       16.49105
H         11.40511       13.48969       15.64737
C         10.37891        9.69391       17.26436
C         10.61944        8.82423       16.20184
H         11.46629        9.01668       15.53848
C          9.79571        7.73840       15.96958
H          9.99255        7.08368       15.13303
C          8.71253        7.50335       16.80018
H          8.06104        6.65957       16.61742
C          8.45929        8.35821       17.85894
H          7.60907        8.18263       18.50480
C          9.28559        9.44502       18.08434
H          9.06824       10.11880       18.90108
