177
CSD_code = EGONUL | q = 0 | S = 0 | Stoichiometry = C89H78N2O2P4RuSi | MND = 6
Ru        63.98465        4.56773        1.63595
P         63.31897        6.02688        3.28295
P         63.04523        2.98044        3.01460
P         64.96537        3.22778        0.04414
P         64.57514        6.26763        0.20804
C         59.94556        8.01015        2.07353
H         59.25073        7.94671        1.24880
C         62.20520        4.49121        0.67470
C         65.55154        0.50739        0.35043
H         64.54241        0.33453        0.00229
C         62.56786        0.31128        2.32167
H         63.58719        0.13401        2.63612
C         61.03782        7.15972        2.11276
H         61.19391        6.43618        1.32445
C         62.01980        1.58680        2.43621
C         61.84494        3.91526        4.06002
H         61.09033        4.34556        3.39022
H         61.34262        3.26681        4.78396
C         61.81498       -0.72634        1.80318
H         62.24845       -1.71247        1.72007
C         63.97575        2.50834       -1.31768
C         61.17833        4.37194        0.03581
C         61.93941        7.22516        3.16592
C         65.75284        4.43537        2.58548
C         62.64589        5.03880        4.70026
H         63.47647        4.62481        5.28047
H         62.03292        5.67413        5.34799
C         60.70885        1.80384        2.01742
H         60.27997        2.79191        2.07398
C         62.78184        1.89570       -0.94658
H         62.49424        1.90361        0.09383
C         66.11094        0.90862        4.67743
H         67.05087        0.52257        4.31099
C         65.27471        1.60187        3.82294
H         65.56328        1.76560        2.79532
C         64.34169        2.50824       -2.65995
H         65.26645        2.95993       -2.98713
C         67.34304        2.01769        0.88615
H         67.72961        3.02108        0.97545
C         64.05956        2.11499        4.26871
C         59.97289        4.27762       -0.69289
C         65.27575        5.51534       -1.33611
H         64.45690        5.15639       -1.96739
H         65.86016        6.25827       -1.88868
C         61.72782        8.14679        4.19085
H         62.41896        8.19669        5.02209
C         59.75055        8.93549        3.08270
H         58.90293        9.60442        3.05103
C         66.12276        4.34362       -0.86343
H         66.86723        4.70311       -0.14250
H         66.64279        3.82291       -1.67294
C         62.33069        1.31516       -3.22417
H         61.69262        0.86158       -3.96827
C         63.02032        8.58431        0.13680
H         63.70885        8.95947        0.88171
C         64.60882        7.04260        4.07158
C         61.26270        7.62149       -1.76839
H         60.57086        7.23640       -2.50361
C         59.96229        0.76280        1.49739
H         58.94867        0.94429        1.17035
C         62.34694        6.85473       -1.38331
H         62.48467        5.87465       -1.81456
C         63.51816        1.91874       -3.60376
H         63.80875        1.93011       -4.64471
C         66.56772        7.22556        5.45869
H         67.26724        6.77326        6.14690
C         57.59207        4.07832       -2.13544
C         60.64381        9.00091        4.14210
H         60.49011        9.71878        4.93510
C         65.74590        0.72769        6.00118
H         66.40196        0.20329        6.67960
C         61.96525        1.29927       -1.88851
H         61.04171        0.83286       -1.57820
C         59.99179        4.02225       -2.06736
H         60.94059        3.89205       -2.56901
C         63.69312        1.91530        5.59606
H         62.75261        2.28462        5.97745
N         56.39263        3.97007       -2.86043
C         65.51487        6.47742        4.96470
H         65.40983        5.44616        5.26668
C         60.51223       -0.50377        1.38834
H         59.92843       -1.31518        0.97915
C         66.81215        7.32159        1.52847
H         66.68208        6.49674        2.21512
C         64.78926        8.36461        3.67319
H         64.09224        8.80797        2.97505
C         63.24290        7.33260       -0.43094
C         68.03376        9.25437        0.80587
H         68.85618        9.94377        0.92912
C         61.94104        9.35242       -0.25624
H         61.78341       10.32464        0.18798
C         53.14166        2.56537       -3.41004
H         52.35464        2.68488       -4.13959
C         66.78286        4.27836        3.21809
C         66.08710        8.54587       -0.40593
H         65.39404        8.67960       -1.22629
C         55.33447        3.14563       -2.54633
C         67.87215        8.19894        1.68482
H         68.56758        8.05449        2.49876
C         68.13052        0.94553        1.26284
H         69.13293        1.12068        1.62582
C         58.73843        4.44172       -0.05722
H         58.71082        4.65839        1.00247
C         65.83682        9.11303        4.17481
H         65.96173       10.13971        3.86206
C         65.90941        7.49043        0.48802
C         54.78656        4.28661       -4.44563
C         55.20514        2.23190       -1.50959
H         55.99866        2.08778       -0.79137
C         57.56241        4.34696       -0.76987
H         56.61090        4.49053       -0.27774
C         67.13902        9.42510       -0.24049
H         67.26640       10.24588       -0.93180
C         64.53753        1.23133        6.45384
H         64.24800        1.09064        7.48536
C         66.34505       -0.56100        0.72638
H         65.95359       -1.56610        0.66467
C         54.24246        4.86848       -5.58316
H         53.25899        4.58331       -5.92580
C         61.05742        8.87104       -1.20810
H         60.20933        9.46787       -1.51006
C         54.31098        3.30796       -3.50947
C         67.63431       -0.34542        1.18470
H         68.24947       -1.18141        1.48325
C         56.07728        4.66541       -4.00710
C         54.03326        1.50524       -1.43293
H         53.90647        0.78893       -0.63407
C         56.24426        6.19878       -5.80842
H         56.79295        6.95426       -6.35207
C         54.98176        5.81800       -6.25932
H         54.57729        6.28120       -7.14721
C         53.01128        1.67237       -2.36558
H         52.10900        1.08662       -2.26941
C         66.73073        8.54371        5.06676
H         67.55406        9.12591        5.45366
C         67.95545        3.63447        5.25418
H         67.00790        3.36191        5.69707
C         67.97394        4.14065        3.94480
C         56.80741        5.63492       -4.68051
H         57.78049        5.94460       -4.32906
C         69.20879        4.51187        3.38898
H         69.23452        4.92224        2.38789
C         58.81623        3.91763       -2.77874
H         58.83538        3.69917       -3.83706
C         70.35887        3.82693        5.40796
C         70.36717        4.36555        4.10732
H         71.31214        4.65619        3.66860
C         69.11707        3.47312        5.96414
H         69.07722        3.07798        6.96633
C         66.04535        1.80777        0.42410
C         71.60523        3.67668        6.08736
H         72.47149        4.09337        5.58247
O         73.46614        2.36366        8.84151
C         71.89306        3.07266        7.27390
N         70.28140        1.86222        8.84197
O         74.19802        3.64894        7.14048
C         74.77632        2.32184        9.40843
H         74.82897        1.36278        9.92585
H         75.50963        2.34882        8.59694
C         73.30567        3.07763        7.72438
Si        76.73845        3.45280       11.16884
C         74.99998        3.47693       10.36788
H         74.86210        4.40828        9.81686
H         74.22257        3.44438       11.13212
C         76.79711        4.83451       12.48328
H         76.60163        5.80862       12.04582
H         76.06028        4.67263       13.26403
H         77.77185        4.87919       12.95842
C         77.04135        1.76103       12.00018
H         77.11179        0.96410       11.26583
H         77.96689        1.76275       12.56779
H         76.23905        1.50548       12.68605
C         78.06255        3.76378        9.83143
H         78.09618        2.95292        9.10984
H         77.86033        4.67875        9.28260
H         79.05333        3.85458       10.26656
C         70.98717        2.41481        8.12180
