71
CSD_code = EJANAE | q = 0 | S = 0 | Stoichiometry = C26H36CrO7Si | MND = 9
Cr         2.73906       11.06869        8.67534
C          3.61067       11.12740        7.07950
O          4.12187       11.19310        6.04604
C          1.32940       11.19442        7.53878
O          0.49043       11.31733        6.74877
C          2.69694       12.88305        8.54580
O          2.64324       14.03100        8.42183
C          2.77245       11.11773       10.96830
C          1.74994       10.25456       10.56173
C          2.05712        9.17057        9.68455
C          3.37599        8.97583        9.25604
C          4.43159        9.84623        9.67683
C          5.76465        9.68313        9.22879
H          5.96503        8.89132        8.52527
C          6.75886       10.53773        9.62655
C          6.45622       11.61068       10.52607
C          5.16928       11.78966       10.96093
H          4.90807       12.60840       11.60952
C          4.12956       10.92527       10.54916
O          2.49941       12.13975       11.81818
Si         2.52355       12.44770       13.42900
C          0.73813       12.88599       13.93311
H          0.11132       12.01810       14.11566
H          0.25909       13.47683       13.15865
H          0.73687       13.47872       14.84162
C          3.59988       14.00564       13.64358
H          4.66279       13.79549       13.71261
H          3.32063       14.53778       14.54649
H          3.45096       14.68317       12.80805
C          3.18361       10.96226       14.48268
C          4.68050       10.72770       14.25482
H          5.26012       11.60065       14.54578
H          4.89138       10.50617       13.21047
H          5.02398        9.88445       14.85419
C          2.96583       11.24729       15.97169
H          1.90927       11.37390       16.19224
H          3.48690       12.15379       16.26930
H          3.34373       10.42292       16.57539
C          2.44264        9.67066       14.12103
H          1.37375        9.76819       14.29905
H          2.80813        8.84245       14.72821
H          2.59688        9.41256       13.07431
C          0.35867       10.52088       11.07824
H          0.42065       10.69992       12.15444
H         -0.29140        9.66328       10.91674
C         -0.26984       11.74923       10.41694
H         -1.24357       11.95043       10.85796
H         -0.39569       11.58426        9.34969
H          0.36353       12.62098       10.55522
C          1.00048        8.17891        9.26407
H          1.35571        7.65869        8.37242
H          0.08299        8.70406        8.99277
C          0.70232        7.15010       10.36069
H         -0.04802        6.44414       10.01268
H          0.33278        7.62579       11.26655
H          1.59873        6.59208       10.62383
O          3.68989        7.92898        8.39687
C          4.23621        6.78295        9.02315
H          4.64077        6.16394        8.22404
H          3.46706        6.21679        9.55945
H          5.03426        7.04384        9.72590
O          8.05185       10.47319        9.23116
C          8.40291        9.52771        8.24980
H          9.45592        9.70339        8.03739
H          7.81819        9.66556        7.33521
H          8.27442        8.50279        8.61410
O          7.51434       12.38964       10.86015
C          7.28396       13.50714       11.68161
H          8.24693       14.00611       11.77507
H          6.93486       13.20690       12.67546
H          6.55989       14.19389       11.23249
