76
CSD_code = EMOLEX | q = 0 | S = 0 | Stoichiometry = C38H32Cl2N2SiZr | MND = 12
Zr         5.32604        1.53823        3.87032
Cl         7.64549        1.54330        3.56935
Cl         4.90330        2.50834        1.78437
Si         3.39675        0.54559        6.30098
C          4.11921       -0.33918        4.77866
C          3.67090       -0.12029        3.42981
C          4.68572       -0.49141        2.50146
H          4.57457       -0.51155        1.42428
C          5.78225       -0.93140        3.26373
C          5.47282       -0.82205        4.65332
C          6.60706       -1.37404        5.34746
C          6.88725       -1.68075        6.67687
H          6.15463       -1.49756        7.44610
C          8.10088       -2.25759        6.99610
H          8.32397       -2.49171        8.02629
C          9.03328       -2.56052        6.00910
H          9.96986       -3.02050        6.28597
C          8.76942       -2.30747        4.67627
H          9.47696       -2.58787        3.91151
C          7.56287       -1.71060        4.34468
N          7.04846       -1.45097        3.08644
C          7.71469       -1.55297        1.85746
C          7.05362       -2.10393        0.76323
H          6.04414       -2.46915        0.87996
C          7.69759       -2.19796       -0.45617
H          7.18115       -2.62788       -1.30177
C          9.00078       -1.74977       -0.59323
H          9.50201       -1.82698       -1.54631
C          9.65587       -1.19492        0.49388
H         10.66664       -0.83015        0.38659
C          9.01919       -1.08931        1.71630
H          9.51072       -0.62135        2.55481
C          2.30932        0.33351        2.97943
H          2.28434        0.38042        1.89053
H          2.05965        1.32613        3.36001
H          1.54106       -0.36917        3.30579
C          4.20620        2.21899        5.89242
C          5.61073        2.49263        6.03638
C          5.99351        3.58297        5.20329
H          6.97104        4.04911        5.18858
C          4.83362        3.98992        4.52062
C          3.73803        3.15733        4.90167
C          2.58627        3.70111        4.23024
C          1.21732        3.44817        4.27371
H          0.82302        2.68465        4.92455
C          0.36401        4.21187        3.50159
H         -0.69734        4.01516        3.52851
C          0.84763        5.24436        2.70449
H          0.15681        5.83210        2.11905
C          2.19542        5.54833        2.67052
H          2.55822        6.38019        2.08702
C          3.06473        4.77643        3.42580
N          4.42395        4.95098        3.61884
C          5.27270        5.83410        2.93740
C          6.23825        6.54219        3.64748
H          6.30664        6.42134        4.71836
C          7.08712        7.40729        2.98300
C          6.97842        7.57609        1.61274
C          6.02259        6.86563        0.90529
C          5.17305        5.99241        1.55839
C          6.57952        1.83672        6.98186
C          3.88704       -0.14785        8.01170
C          1.48872        0.50777        6.37678
H          7.83348        7.95585        3.53854
H          4.45424        5.40706        1.00669
H          6.67808        0.76574        6.79256
H          6.26616        1.98116        8.01694
H          7.56526        2.28639        6.86094
H          3.75382       -1.22453        8.03206
H          3.22985        0.27252        8.76601
H          4.90305        0.07416        8.30866
H          1.17116       -0.41753        6.84647
H          1.00252        0.56367        5.41230
H          1.12167        1.32353        6.99096
H          7.64109        8.25462        1.09696
H          5.94533        6.98307       -0.16545
