67
CSD_code = EQOFOH | q = 0 | S = 0 | Stoichiometry = C27H37NSiZr | MND = 8
Zr         2.94627        6.51313        8.54232
Si         0.60476        7.37461       10.21642
N          0.90409        6.35271        8.86376
C          2.45564        7.62883       10.61698
C          3.26924        6.49701       10.93938
C          4.58284        6.71198       10.45363
C          4.59534        7.98200        9.80486
C          3.29725        8.54036        9.90987
C          2.80615        5.30074       11.72651
H          2.51216        5.60104       12.73439
H          3.60034        4.55973       11.81681
H          1.93789        4.83371       11.25322
C          5.78351        5.83688       10.70250
H          6.56425        6.02656        9.96630
H          5.52578        4.77724       10.65136
H          6.20425        6.03470       11.69179
C          5.79746        8.68229        9.23005
H          6.53918        7.96631        8.87465
H          6.27909        9.30935        9.98535
H          5.50922        9.32320        8.39513
C          2.95108        9.94325        9.48656
H          2.02020       10.25758        9.94991
H          2.85068       10.03602        8.40001
H          3.73598       10.63247        9.80569
C         -0.39800        6.66226       11.70026
H         -1.46075        6.69338       11.48041
H         -0.23807        7.25223       12.59661
H         -0.14324        5.63510       11.93476
C         -0.33205        9.01912        9.84775
H         -1.39514        8.82820        9.74397
H          0.00398        9.49431        8.93179
H         -0.21687        9.73192       10.65780
C         -0.02820        5.59481        8.05538
C          0.69021        5.12419        6.76868
H          1.53755        4.47420        7.02005
H          1.05171        5.98594        6.19807
H         -0.00120        4.56158        6.14183
C         -1.25461        6.43059        7.65000
H         -1.81766        6.71066        8.53527
H         -1.90369        5.86385        6.98635
H         -0.93717        7.33747        7.14150
C         -0.51706        4.35109        8.82414
H          0.33452        3.73955        9.11862
H         -1.18317        3.75147        8.20802
H         -1.04891        4.66054        9.71935
C          3.93283        4.58759        8.15401
C          3.49551        3.41813        8.80380
H          2.57240        3.44223        9.38810
C          4.18550        2.21575        8.73627
H          3.80983        1.34271        9.25419
C          5.35994        2.13142        8.00854
H          5.90402        1.19906        7.95469
C          5.82998        3.25553        7.35224
H          6.74746        3.19894        6.78114
C          5.13000        4.45150        7.43021
H          5.53748        5.31244        6.89882
C          3.18738        7.75449        6.74486
C          2.08791        8.56081        6.38792
H          1.15383        8.46057        6.94681
C          4.35408        7.97219        5.99448
H          5.25589        7.40170        6.21973
C          3.31170        9.65897        4.63800
H          3.36032       10.38138        3.83555
C          4.42112        8.89805        4.96202
H          5.34254        9.03060        4.41036
C          2.14091        9.48941        5.35761
H          1.27083       10.08627        5.11619
