61
CSD_code = EQOLIG | q = 0 | S = 0 | Stoichiometry = C25H33NSiTi | MND = 8
Ti         7.36870        9.81812        8.58068
Si         5.15886       10.76973       10.22585
N          6.82516       11.12193        9.86320
C          6.08724        8.41705        7.11537
C          7.47974       12.30927       10.14217
C          5.19159        9.26608        9.06671
C          7.68677       13.23403        9.10851
H          7.32264       12.97879        8.11864
C          8.11196       10.43508       12.50815
H          8.55159       10.07919       11.58536
C          7.15424       12.22760       13.77958
H          6.82652       13.25520       13.84887
C          5.25902        9.42705        7.65142
C          7.70218       11.76331       12.58644
C          5.99989        8.13537        9.39121
C          6.55348        7.61351        8.19955
C          8.49417       13.90455       11.65313
H          8.81540       14.16102       12.65317
C          7.88798       12.67079       11.44336
C          8.71442       14.78867       10.61392
H          9.19631       15.73682       10.79952
C          9.18616        9.05679        9.21466
H          9.67896        8.50776        8.39888
H          9.07657        8.35149       10.04978
H          9.88626        9.84534        9.53322
C          7.97871        9.59421       13.59837
H          8.31310        8.56777       13.53338
C          7.01176       11.38223       14.86442
H          6.57832       11.75267       15.78239
C          4.64655       10.38496       12.03135
H          4.57524       11.30655       12.59925
H          5.34825        9.74169       12.54788
H          3.67175        9.90851       12.05741
C          8.21378       10.70126        6.91368
H          8.62872        9.93455        6.24421
H          9.03921       11.38490        7.16208
H          7.47999       11.27170        6.32721
C          7.42481       10.06333       14.77841
H          7.31740        9.40442       15.62764
C          7.32523        6.33269        8.04746
H          6.64806        5.50891        7.80624
H          7.85641        6.07869        8.96380
H          8.05587        6.40966        7.24170
C          4.04318       12.24417        9.71316
H          4.11078       13.01835       10.47101
H          3.00021       11.95824        9.63238
H          4.34925       12.68607        8.77088
C          6.27993        8.10269        5.65870
H          5.51210        7.40147        5.32041
H          7.25120        7.64153        5.48086
H          6.21065        9.00196        5.04811
C          8.30291       14.44780        9.33517
H          8.45254       15.13718        8.51631
C          6.13247        7.53926       10.76445
H          5.15702        7.51204       11.24934
H          6.80345        8.12558       11.39644
H          6.51064        6.51913       10.70900
C          4.47442       10.43062        6.85335
H          3.53982       10.65827        7.36239
H          4.23763       10.03330        5.86646
H          5.02373       11.36750        6.71976
