78
CSD_code = EXOTEQ | q = 0 | S = 0 | Stoichiometry = C23H48N5SiY | MND = 6
Y          3.49948        0.68506        7.98208
Si         1.27334       -1.02430        5.69445
N          3.85126        0.08715       10.10690
N          4.89643        2.66023        9.26566
N          4.74746        2.55408        6.35420
N          1.94613        3.05634        9.22159
N          5.27769       -0.18360        6.83185
C          1.87378       -1.33048       10.33389
C          4.12005       -2.37366       10.50084
C          3.27278       -0.89865       12.33607
C          3.31935       -1.08266       10.80066
C          5.07303        0.58786       10.70569
C          5.78999        1.65315        9.85718
C          5.66235        3.58441        8.42806
C          5.95404        3.03201        7.03030
C          4.16818        3.40417       10.29388
C          2.88847        4.04062        9.74786
C          1.27660        2.36431       10.31907
C          0.94106        3.72948        8.40711
C          3.96173        3.67700        5.85660
C          5.09166        1.69032        5.21632
C          5.83069        0.40158        5.60466
C          5.81377       -0.56689        4.44876
C          6.07049       -1.85750        4.70218
C          6.16175       -2.29272        6.05908
C          5.65417       -1.46722        7.02018
C          1.42593        0.47124        6.83698
C          2.24323       -0.76084        4.06789
C         -0.53918       -1.43011        5.19968
C          1.98418       -2.59472        6.53107
H          1.50655       -2.26690       10.74979
H          1.22102       -0.52770       10.66841
H          1.83309       -1.39242        9.24389
H          3.74881       -3.19793       11.10585
H          4.01361       -2.63820        9.44998
H          5.17644       -2.24040       10.72349
H          2.68275       -1.69623       12.78109
H          4.26791       -0.93257       12.77089
H          2.80865        0.05230       12.59101
H          4.87569        1.02252       11.70700
H          5.82262       -0.21058       10.87490
H          6.30140        1.14645        9.03387
H          6.55138        2.14339       10.49099
H          5.09856        4.51349        8.33068
H          6.62392        3.83913        8.90591
H          6.64398        2.19444        7.12199
H          6.45330        3.81911        6.43904
H          3.89681        2.71157       11.08594
H          4.79839        4.19453       10.73486
H          3.13727        4.73429        8.94079
H          2.42642        4.63597       10.55644
H          1.99542        1.74932       10.85514
H          0.80352        3.07426       11.01651
H          0.50480        1.71361        9.91212
H          1.41573        4.23268        7.56626
H          0.37474        4.47493        8.98689
H          0.24305        2.99307        8.01499
H          3.05457        3.30498        5.38140
H          3.67779        4.33127        6.67745
H          4.52457        4.26933        5.11790
H          4.15117        1.40998        4.73232
H          5.70774        2.24189        4.48559
H          6.90010        0.65809        5.81384
H          5.63178       -0.18052        3.45737
H          6.12352       -2.58837        3.90733
H          6.45671       -3.30235        6.29382
H          5.50416       -1.84419        8.03033
H          1.22979        1.37122        6.23940
H          0.60131        0.41881        7.56021
H          1.98768       -1.51808        3.33301
H          2.03252        0.20684        3.62138
H          3.31265       -0.82825        4.24539
H         -0.98753       -0.61197        4.64431
H         -0.59906       -2.31827        4.57849
H         -1.15498       -1.60355        6.07698
H          3.00038       -2.41812        6.88244
H          2.02302       -3.42431        5.83142
H          1.38101       -2.91422        7.37627
