59
CSD_code = EZIWAM | q = 0 | S = 0 | Stoichiometry = C24H31ClOSiTi | MND = 12
Ti         4.44798        9.08682        2.65354
C          3.48426       10.69511        4.12529
C          3.68792        9.47529        4.83722
H          2.90642        8.91654        5.33742
C          5.07211        9.29621        5.03510
H          5.54064        8.52923        5.63933
C          5.73685       10.33830        4.36805
H          6.80500       10.51645        4.36677
C          4.75813       11.19415        3.81043
H          4.96584       12.12936        3.30643
C          2.27375        9.69895        1.96563
C          3.07893        9.82068        0.81974
H          3.25898       10.73307        0.26523
C          3.50386        8.53107        0.42005
H          4.06272        8.29973       -0.47819
C          2.96527        7.59882        1.32059
H          3.04617        6.52183        1.23855
C          2.26190        8.31463        2.31049
H          1.63327        7.87278        3.07328
C          5.57513        6.31942        2.80487
C          4.89311        5.35590        3.57355
C          5.27949        4.02713        3.48272
H          4.76338        3.28467        4.07242
C          6.31505        3.63891        2.65605
H          6.60245        2.59984        2.59834
C          6.99078        4.58775        1.90790
H          7.80364        4.27504        1.27269
C          6.64016        5.92488        1.96490
C          3.78334        5.77441        4.50964
H          3.60458        6.84652        4.35015
C          2.48226        5.02119        4.22488
H          2.18216        5.15063        3.18759
H          1.68586        5.39531        4.86557
H          2.59772        3.95753        4.41694
C          4.21502        5.56692        5.96439
H          4.36484        4.51017        6.17269
H          3.45533        5.94752        6.64413
H          5.14984        6.08726        6.16128
C          7.37165        7.00472        1.20633
H          6.61493        7.69818        0.81233
C          8.20400        6.49194        0.03504
H          8.57707        7.33814       -0.53707
H          7.60364        5.86957       -0.62489
H          9.06013        5.91751        0.38236
C          8.25720        7.78342        2.18855
H          7.65125        8.19424        2.99911
H          8.74484        8.60834        1.67509
H          9.01707        7.12801        2.61185
O          5.22446        7.60131        2.86550
Si         1.89038       11.08523        3.19105
C          1.89546       12.81055        2.38757
H          1.04159       12.93053        1.72928
H          2.79381       12.97881        1.80210
H          1.84028       13.58693        3.14319
C          0.30898       10.78763        4.21148
H          0.21845       11.52789        4.99911
H          0.29740        9.80727        4.67590
H         -0.57137       10.86609        3.58267
Cl         5.98432       10.09623        1.34292
