82
CSD_code = FAMHUZ | q = 0 | S = 0 | Stoichiometry = C28H47FFeNP3Si | MND = 6
Fe         0.82850        4.13326       15.11976
P          0.60491        5.28459       13.31830
P          1.73049        5.66034       16.37418
P          0.09051        2.84439       16.67325
Si        -3.82883        5.76251       15.56319
F          2.41138        0.37166       11.91865
N          2.52827        3.42067       14.84162
H          3.39336        3.73382       15.27934
C         -0.94156        4.78856       15.30352
C         -2.09107        5.18318       15.40555
C         -4.45548        6.42664       13.88464
H         -3.84197        7.25244       13.53548
H         -5.47979        6.78330       13.94987
H         -4.42521        5.65299       13.12270
C         -3.94016        7.16050       16.86151
H         -3.60793        6.81647       17.83681
H         -4.95682        7.52755       16.97148
H         -3.31444        8.00354       16.58316
C         -4.95099        4.31788       16.11592
H         -4.92398        3.50525       15.39555
H         -5.98669        4.62929       16.22079
H         -4.63024        3.91627       17.07306
C          0.35636        2.68090       13.91501
C         -0.89212        2.28922       13.43496
H         -1.76680        2.81318       13.78986
C         -1.03691        1.27007       12.51462
H         -2.02050        0.98471       12.16804
C          0.07935        0.61951       11.99927
H         -0.01016       -0.15009       11.24841
C          1.32220        0.98389       12.45922
C          1.48205        1.96802       13.43647
C          2.70716        2.41060       14.03684
C          4.05188        1.86080       13.79843
C          5.03346        2.74392       13.34752
H          4.76215        3.77382       13.15659
C          6.32542        2.31738       13.11680
H          7.06921        3.01215       12.75450
C          6.65795        0.99327       13.34998
H          7.66493        0.64613       13.17041
C          5.69699        0.11813       13.81936
H          5.96023       -0.91212       14.01430
C          4.39061        0.52947       14.05415
C          3.40723       -0.46219       14.59933
H          2.45796        0.00785       14.84205
H          3.80811       -0.93506       15.49594
H          3.22280       -1.24376       13.86329
C          0.18727        7.07159       13.45618
H         -0.82236        7.12205       13.86130
H          0.21789        7.54359       12.47398
H          0.85964        7.59560       14.12859
C         -0.66625        4.89256       12.06105
H         -0.46068        3.93528       11.58897
H         -0.66831        5.68009       11.30653
H         -1.63480        4.85560       12.55409
C          2.07137        5.34244       12.20210
H          2.93049        5.74735       12.73416
H          1.86978        5.94590       11.31735
H          2.29915        4.32046       11.89887
C          3.09258        6.67532       15.64621
H          3.92869        6.01864       15.40777
H          3.42622        7.42892       16.35989
H          2.77256        7.16388       14.73035
C          2.70581        5.12748       17.85000
H          2.07703        4.60030       18.56209
H          3.15304        5.99353       18.33857
H          3.49837        4.45302       17.52752
C          0.70720        6.97490       17.13966
H          0.19325        7.52507       16.35541
H          1.31514        7.65196       17.73993
H         -0.05343        6.50360       17.75800
C         -0.64441        3.59956       18.18042
H          0.04097        4.29677       18.65334
H         -0.92043        2.82350       18.89438
H         -1.53101        4.14398       17.85972
C          1.29855        1.67325       17.42792
H          1.65619        1.00971       16.64230
H          0.83621        1.08215       18.21808
H          2.14993        2.22012       17.82762
C         -1.27126        1.66256       16.35736
H         -2.13660        2.22650       16.01699
H         -1.51429        1.13985       17.28313
H         -0.98569        0.94381       15.59312
