58
CSD_code = FEVFET | q = 0 | S = 0 | Stoichiometry = C24H27FeN5Si | MND = 4
Fe         4.84043        2.61012        1.86186
Si         3.05008        4.91938        0.01052
N          4.99722        1.89025        0.13916
N          2.85523        0.86977       -0.07306
N          3.04487        2.02749        2.00918
N          7.19805        2.64083       -0.40510
N          6.71829        2.92620        1.91573
C          6.05514        2.08419       -0.69060
C          5.74069        1.53901       -2.00487
C          4.44592        1.00268       -1.90593
C          4.00613        1.25833       -0.53982
C          6.44867        1.47676       -3.19037
H          7.44173        1.89183       -3.25824
C          5.83538        0.87098       -4.27703
H          6.36013        0.81062       -5.21967
C          4.55498        0.33750       -4.17801
H          4.10918       -0.12795       -5.04527
C          3.84168        0.39428       -2.98979
H          2.84775       -0.01593       -2.90543
C          2.41749        1.16043        1.15811
C          1.20911        0.52147        1.52058
H          0.78555       -0.16180        0.80368
C          0.61750        0.78940        2.72142
H         -0.30456        0.31259        3.01612
C          1.22757        1.73448        3.55310
H          0.77515        2.01554        4.49152
C          2.40412        2.32850        3.16268
C          3.02066        3.37731        4.04636
H          3.46106        2.92426        4.93418
H          2.25233        4.07246        4.37843
H          3.77645        3.93401        3.49202
C          7.54275        3.02348        0.83193
C          8.86535        3.50301        0.96474
H          9.44819        3.58643        0.06295
C          9.36487        3.81750        2.19660
H         10.37061        4.18903        2.31889
C          8.54508        3.60993        3.31142
H          8.91500        3.79045        4.30873
C          7.25609        3.16782        3.13049
C          6.37620        2.90720        4.32261
H          5.84709        3.81479        4.61170
H          6.97980        2.58697        5.16848
H          5.65019        2.11959        4.09002
C          4.57049        4.39893        1.00312
H          4.68054        5.03854        1.89246
H          5.44362        4.59667        0.37654
C          3.04355        4.18374       -1.74960
H          4.04454        4.15639       -2.16921
H          2.42013        4.76529       -2.42249
H          2.66485        3.16764       -1.74711
C          1.36250        4.54956        0.83447
H          1.10218        3.50010        0.75264
H          0.57348        5.11820        0.35113
H          1.35349        4.81218        1.88733
C          3.13879        6.83162       -0.16610
H          3.09013        7.32444        0.79998
H          2.31649        7.20806       -0.76612
H          4.06220        7.14058       -0.64506
