80
CSD_code = FICCEA | q = 0 | S = 0 | Stoichiometry = C30H46O2SiZr | MND = 12
Zr        11.35281        3.23001        0.32241
Si         9.30865        3.73053       -2.05600
O         14.37107        3.05647        1.57839
O         12.10413        2.48386        3.42051
C         13.35892        3.37338        1.04945
C         11.69232        2.51704        2.30968
C         10.66470        2.40586       -1.82324
C         12.09824        2.42665       -1.91329
C         12.59510        1.42383       -1.04831
H         13.62567        1.11141       -0.97711
C         11.51677        0.75907       -0.41726
C         10.33895        1.36954       -0.88579
H          9.34075        0.98422       -0.73705
C          9.56831        4.65912       -0.40727
C          9.23070        4.36808        0.95839
C         10.18245        5.01497        1.78077
H         10.13728        5.08471        2.85684
C         11.11083        5.71784        0.97637
C         10.73795        5.48895       -0.36083
H         11.13137        6.02329       -1.21329
C         12.96933        3.13813       -2.93821
C         12.33880        2.98919       -4.32928
H         11.33622        3.40253       -4.34786
H         12.27901        1.93721       -4.59856
H         12.94236        3.50291       -5.07508
C         14.37398        2.51896       -2.98351
H         14.95435        2.98909       -3.77531
H         14.32402        1.45301       -3.19165
H         14.89811        2.67540       -2.04221
C         13.13910        4.62324       -2.58980
H         12.22492        5.17034       -2.79948
H         13.93360        5.06245       -3.19196
H         13.40349        4.72554       -1.53121
C         11.63029       -0.50417        0.41198
C         12.98066       -0.55408        1.13769
H         13.80147       -0.66258        0.43347
H         13.00883       -1.40427        1.81625
H         13.13823        0.35625        1.71769
C         11.51663       -1.71029       -0.53497
H         10.55209       -1.70769       -1.03740
H         11.61861       -2.64128        0.01854
H         12.29520       -1.66971       -1.29301
C         10.51437       -0.58214        1.46088
H         10.58677        0.26441        2.14780
H         10.61166       -1.49987        2.03786
H          9.53247       -0.58430        0.99353
C          7.94799        3.75796        1.50422
C          7.95459        2.22965        1.36368
H          8.90901        1.83066        1.72523
H          7.79938        1.94158        0.32838
H          7.14854        1.79418        1.95307
C          7.78604        4.07559        2.99795
H          7.81082        5.14816        3.17373
H          8.56998        3.59898        3.58390
H          6.82665        3.69959        3.34861
C          6.74638        4.35383        0.75883
H          5.81922        3.91947        1.12781
H          6.81827        4.16729       -0.30714
H          6.70969        5.42944        0.91486
C         12.14587        6.69933        1.48786
C         12.63380        6.29122        2.88364
H         11.83969        6.38269        3.62014
H         13.45375        6.93499        3.19560
H         12.98707        5.25918        2.87991
C         11.49122        8.08860        1.56400
H         11.16385        8.40754        0.57715
H         12.19528        8.82187        1.95143
H         10.62297        8.06130        2.21810
C         13.35878        6.76567        0.55203
H         13.84175        5.78732        0.49578
H         14.08275        7.48288        0.93415
H         13.07004        7.08312       -0.44715
C          9.39446        5.00385       -3.48529
H          9.24355        4.51714       -4.44265
H         10.31946        5.56445       -3.54177
H          8.59099        5.72368       -3.36063
C          7.65882        2.83839       -2.44841
H          6.86349        3.55742       -2.61308
H          7.32360        2.14334       -1.68859
H          7.77719        2.27425       -3.36831
