88
CSD_code = FICCAW | q = 0 | S = 0 | Stoichiometry = C34H51ClSiZr | MND = 12
Zr         2.30519        0.53384        4.27909
Cl         4.31042        1.78260        4.19883
Si        -0.12829        1.10531        6.54626
C          1.55369        0.21494        6.59440
C          2.90452        0.60912        6.83207
C          3.74183       -0.40886        6.33636
H          4.81539       -0.44091        6.44186
C          2.96049       -1.44992        5.77885
C          1.60736       -1.05282        5.92145
H          0.75125       -1.68965        5.74901
C         -0.01710        1.45692        4.68027
C         -0.31418        0.67643        3.52434
C          0.45002        1.19483        2.45652
H          0.36924        0.89241        1.42319
C          1.19689        2.31674        2.89776
C          0.92236        2.46485        4.27676
H          1.22898        3.30446        4.88862
C          3.48745       -2.84500        5.49674
C          4.78668       -2.78726        4.68411
H          4.61411       -2.30350        3.72297
H          5.15801       -3.79419        4.50287
H          5.55737       -2.23549        5.21670
C          2.46481       -3.69662        4.73831
H          2.22473       -3.24069        3.77941
H          1.55247       -3.82024        5.31756
H          2.87712       -4.68608        4.55094
C          3.77109       -3.50837        6.85629
H          2.86352       -3.54751        7.45472
H          4.51787       -2.94291        7.40783
H          4.13855       -4.52257        6.71475
C          3.37979        1.75978        7.70269
C          2.97063        3.12047        7.12571
H          3.36400        3.91989        7.75200
H          1.89163        3.21841        7.09614
H          3.38445        3.24177        6.12434
C          2.76564        1.58221        9.09987
H          3.07510        2.39335        9.75589
H          3.09439        0.64092        9.53471
H          1.68060        1.56898        9.04642
C          4.90736        1.75419        7.83801
H          5.22249        2.58854        8.46155
H          5.37675        1.86213        6.86274
H          5.25641        0.83611        8.30470
C         -1.52922       -0.22243        3.33523
C         -1.75554       -0.54776        1.85210
H         -0.92068       -1.09885        1.42709
H         -1.90188        0.36300        1.27708
H         -2.65019       -1.15874        1.74690
C         -1.44357       -1.54500        4.10572
H         -0.56284       -2.11548        3.81331
H         -2.32179       -2.15272        3.89315
H         -1.41373       -1.36333        5.17332
C         -2.75933        0.56040        3.82384
H         -2.85690        1.48603        3.26179
H         -2.66601        0.81205        4.87542
H         -3.66399       -0.02783        3.68305
C          1.87975        3.29293        1.95910
C          0.80269        3.90473        1.04646
H          0.02245        4.37123        1.64398
H          0.34516        3.14124        0.42288
H          1.24162        4.66048        0.39862
C          2.91861        2.56100        1.09733
H          3.73959        2.20525        1.71831
H          3.32502        3.23751        0.34763
H          2.47544        1.70858        0.58359
C          2.56741        4.42443        2.72981
H          3.31207        4.02705        3.41622
H          1.83912        5.00868        3.28856
H          3.07061        5.09105        2.03268
C         -1.39025       -0.08150        7.37075
H         -1.45018        0.16350        8.42709
H         -1.10777       -1.12639        7.30652
H         -2.39011        0.02518        6.96473
C         -0.55162        2.76305        7.41572
H         -0.11557        2.83746        8.40596
H         -1.62932        2.81735        7.53929
H         -0.25446        3.63851        6.84874
C          2.85062       -0.74410        2.57383
C          1.94892       -1.63574        1.96701
H          0.95326       -1.75875        2.38991
C          2.26166       -2.37916        0.83743
H          1.52897       -3.05338        0.41341
C          3.50962       -2.25806        0.25269
H          3.75819       -2.83020       -0.62955
C          4.43416       -1.39672        0.81590
H          5.41548       -1.29522        0.37311
C          4.10942       -0.66332        1.94945
H          4.87831       -0.01053        2.35871
