52
CSD_code = FIHJUC | q = 0 | S = 0 | Stoichiometry = C18H27Cl4PRuSi | MND = 9
Ru         7.67061        4.45264        2.08061
P          5.88737        2.99531        1.78938
Si         8.70830        3.92016        4.15883
Cl         5.93743        5.26208        3.54358
Cl         9.04153        5.58360        5.35257
Cl         7.88359        2.56344        5.50429
Cl        10.64497        3.16185        3.93613
C          8.11472        6.63699        1.79100
C          7.13841        6.22395        0.80935
C          7.73925        5.25117       -0.02747
C          9.07886        5.03430        0.45162
C          9.32032        5.93087        1.54877
C          7.93532        7.79466        2.71751
C          5.83738        6.93267        0.60474
C          7.21457        4.70107       -1.31767
C         10.14241        4.27007       -0.27188
C         10.66692        6.22872        2.12786
C          6.21308        1.69683        0.55038
C          5.56670        1.62344       -0.67704
C          5.89386        0.62419       -1.57921
C          6.86720       -0.30765       -1.26536
C          7.52059       -0.23702       -0.04425
C          7.19970        0.76169        0.85422
C          5.36544        1.99023        3.22212
C          4.28117        3.69240        1.25829
H          8.09421        8.72586        2.16878
H          8.64258        7.75208        3.54270
H          6.92816        7.80913        3.13176
H          6.02803        7.98930        0.40939
H          5.21573        6.86662        1.49898
H          5.28461        6.52183       -0.23729
H          7.72962        5.18288       -2.15140
H          6.14789        4.88457       -1.42458
H          7.38581        3.62728       -1.38869
H         10.65700        4.93969       -0.96454
H          9.71736        3.44511       -0.83968
H         10.87525        3.87040        0.42596
H         11.19927        6.91109        1.46154
H         11.25973        5.32300        2.23492
H         10.58216        6.69715        3.10508
H          4.80555        2.34228       -0.94059
H          5.38597        0.57669       -2.53167
H          7.11986       -1.08464       -1.97133
H          8.28399       -0.95935        0.20325
H          7.72180        0.83580        1.79904
H          4.57078        1.30995        2.91461
H          5.00855        2.65910        4.00470
H          6.21388        1.42599        3.60574
H          3.58072        2.87463        1.08894
H          4.39390        4.28116        0.35079
H          3.91331        4.33489        2.05608
H          8.41717        3.17282        1.73355
