54
CSD_code = FIHJEM | q = 0 | S = 0 | Stoichiometry = C16H33Cl2PRuSi | MND = 9
Ru         5.18537        6.20348        1.32600
P          3.52904        6.58210        2.89030
Si         4.00668        5.95778       -0.74640
C          7.15822        5.73198        0.31851
C          7.14668        7.08279        0.77248
C          7.02627        7.07530        2.20894
C          6.95379        5.71649        2.63435
C          7.00555        4.88930        1.46386
C          7.56976        5.26898       -1.04486
H          8.65111        5.10921       -1.05663
H          7.32295        6.00842       -1.80291
H          7.08301        4.33316       -1.31123
C          7.52503        8.26551       -0.06534
H          8.60645        8.26472       -0.22153
H          7.24773        9.19928        0.41881
H          7.03840        8.22710       -1.03838
C          7.31879        8.26112        3.08050
H          8.39367        8.45881        3.06701
H          7.02135        8.08542        4.11194
H          6.80972        9.15492        2.72281
C          7.15830        5.21212        4.03202
H          8.22071        5.00221        4.18198
H          6.60656        4.29179        4.21310
H          6.85541        5.94674        4.77558
C          7.21144        3.40484        1.44984
H          8.28311        3.19295        1.42238
H          6.75252        2.95543        0.57101
H          6.79266        2.93290        2.33643
C          4.03598        7.51867        4.38887
H          3.17227        7.69412        5.02986
H          4.44917        8.47242        4.06447
H          4.79417        6.97196        4.94408
C          2.13872        7.65530        2.35852
H          1.37570        7.71298        3.13482
H          1.71517        7.26109        1.43806
H          2.53779        8.64795        2.15536
C          2.58038        5.17648        3.66624
H          1.93649        5.61731        4.43887
C          3.54021        4.18618        4.31007
H          2.99323        3.35096        4.74420
H          4.12493        4.65798        5.09743
H          4.21619        3.79581        3.55049
C          1.72051        4.48713        2.61428
H          1.25928        3.59324        3.03077
H          2.34018        4.19572        1.76621
H          0.93066        5.14417        2.25876
C          2.11777        6.19823       -1.11536
H          1.90728        5.93235       -2.14802
H          1.81723        7.23172       -0.97265
H          1.50207        5.56987       -0.47912
Cl         4.80187        7.20266       -2.24057
Cl         4.29501        4.05547       -1.59372
H          4.59646        4.79339        1.42801
H          4.74199        7.65179        1.02632
