63
CSD_code = FIHKAJ | q = 0 | S = 0 | Stoichiometry = C19H41PRuSi | MND = 9
Ru         4.45582        7.93988        0.37369
P          2.50751        6.74307        0.84659
Si         3.71771       10.22165        0.32775
C          6.02971        6.23886       -0.03576
C          6.03452        7.18196       -1.09936
C          6.39030        8.47030       -0.56721
C          6.55857        8.32318        0.83940
C          6.30457        6.94038        1.17169
C          6.06256        4.74953       -0.20850
C          6.05288        6.84480       -2.56123
C          6.84165        9.63800       -1.39321
C          7.21113        9.32567        1.74524
C          6.67109        6.29848        2.47778
C          1.08877        7.69195        1.64568
C          1.47365        8.49146        2.88841
C         -0.18499        6.89984        1.93952
C          2.85163        5.20995        1.88890
C          1.85236        4.05557        1.84593
C          3.12988        5.61234        3.33494
C          1.58806        5.99949       -0.61111
C          2.57604        5.21317       -1.46387
C          0.90867        7.07294       -1.45598
H          4.24807        8.27781        1.85653
H          3.70093        8.11569       -0.95749
H          4.36369       11.09308        1.34549
H          2.28880       10.59902        0.49298
H          4.05196       10.95822       -0.91974
H          7.08596        4.44596       -0.44713
H          5.76829        4.22699        0.70031
H          5.42002        4.41862       -1.02219
H          7.08989        6.72503       -2.88657
H          5.52617        5.91482       -2.76890
H          5.60211        7.63625       -3.15799
H          7.87615        9.48050       -1.71158
H          6.22641        9.75576       -2.28372
H          6.79351       10.56437       -0.82476
H          8.29797        9.23101        1.67078
H          6.93538       10.34221        1.47001
H          6.92551        9.16772        2.78372
H          7.73717        6.05449        2.47423
H          6.48085        6.96590        3.31650
H          6.11441        5.37788        2.64366
H          0.88197        8.42635        0.85383
H          0.72279        9.25933        3.06757
H          1.52524        7.86080        3.77124
H          2.43168        8.98354        2.74715
H         -0.98475        7.59813        2.18479
H         -0.51418        6.30270        1.09444
H         -0.04613        6.24873        2.79911
H          3.79395        4.84784        1.45667
H          2.19677        3.27317        2.52318
H          0.86412        4.36480        2.17067
H          1.77326        3.61897        0.85394
H          3.69475        4.83281        3.84643
H          3.70386        6.53704        3.36750
H          2.19934        5.75862        3.87718
H          0.83002        5.31249       -0.22306
H          2.07086        4.75498       -2.31390
H          3.33909        5.89100       -1.84279
H          3.05778        4.42545       -0.88746
H          0.61503        6.65450       -2.41798
H          0.01663        7.46324       -0.97373
H          1.59688        7.89910       -1.63530
