80
CSD_code = FIMVIJ | q = 0 | S = 0 | Stoichiometry = C37H33MoN3O3P2Si | MND = 6
Mo         3.10190        1.96142        6.05021
N          2.68718        3.62876        7.30552
C          3.30141        4.80162        7.10191
C          3.02677        5.92907        7.87162
H          3.54045        6.85943        7.68642
C          2.07687        5.83637        8.88655
C          1.43323        4.61723        9.08804
H          0.69037        4.51263        9.86326
C          1.76496        3.53822        8.27284
N          4.23454        4.85465        6.10049
H          4.69387        5.74549        5.94625
P          4.60103        3.48275        5.17149
C          6.38430        3.31149        5.45412
C          6.94946        3.63768        6.68155
H          6.33383        4.07843        7.45677
C          8.29051        3.39157        6.91240
H          8.72987        3.64946        7.86540
C          9.06781        2.80695        5.92602
H         10.11446        2.61311        6.10966
C          8.50279        2.45973        4.70865
H          9.10821        1.99184        3.94602
C          7.16363        2.70650        4.47333
H          6.70485        2.43052        3.53197
C          4.60768        4.19006        3.49655
C          5.36423        5.31939        3.19444
H          5.98466        5.77340        3.95784
C          5.33854        5.84543        1.91698
H          5.92272        6.72378        1.68235
C          4.56854        5.24196        0.93400
H          4.55224        5.65514       -0.06391
C          3.82977        4.10763        1.22630
H          3.23979        3.63305        0.45609
C          3.84870        3.58120        2.50639
H          3.28684        2.68896        2.75322
C          1.77705        6.95262        9.69924
C          1.52479        7.90546       10.40019
Si         1.13899        9.36545       11.48495
C         -0.00080       10.54221       10.51176
H          0.47791       10.89026        9.60131
H         -0.26221       11.41646       11.10122
H         -0.92523       10.04863       10.22713
C          0.27010        8.71956       13.05334
H         -0.65290        8.20303       12.80707
H          0.02173        9.53112       13.73139
H          0.90218        8.02130       13.59402
C          2.78318       10.22314       11.92483
H          3.45243        9.54660       12.44802
H          2.62062       11.08553       12.56508
H          3.29784       10.56828       11.03302
N          1.15511        2.32379        8.44545
H          0.45016        2.26162        9.17177
P          1.56771        0.99192        7.47851
C          2.08565       -0.22252        8.72180
C          1.97100       -1.57543        8.41855
H          1.50032       -1.86785        7.48800
C          2.45951       -2.52479        9.29568
H          2.36880       -3.57533        9.06075
C          3.07193       -2.12843       10.47459
H          3.45414       -2.87085       11.15978
C          3.20564       -0.78190       10.77071
H          3.69495       -0.47502       11.68402
C          2.72061        0.17124        9.89386
H          2.83935        1.22569       10.11337
C         -0.07923        0.34210        7.06442
C         -0.39855        0.11501        5.73272
H          0.34936        0.31244        4.97494
C         -1.65040       -0.36883        5.39367
H         -1.89821       -0.54596        4.35747
C         -2.58366       -0.62680        6.38379
H         -3.56159       -1.00214        6.11998
C         -2.26389       -0.41398        7.71638
H         -2.99067       -0.62734        8.48713
C         -1.01354        0.06412        8.05884
H         -0.75162        0.20763        9.10031
C          4.51371        1.34403        7.24378
O          5.34094        0.98395        7.94549
C          3.44694        0.45446        4.87856
O          3.64055       -0.43260        4.17758
C          1.67939        2.63365        4.89972
O          0.83887        3.06153        4.25062
