38
CSD_code = FOTLIJ | q = 0 | S = 0 | Stoichiometry = C14H20S2SiTi | MND = 12
Ti         1.62764        3.47564        0.04791
S          2.90771        3.48142        2.09078
S          3.70498        3.47847       -1.15334
Si         4.60573        3.47700        0.79121
C          5.66833        1.91243        1.04186
C          1.08242        1.64282       -1.33944
C          1.93121        1.18333       -0.29876
C          1.25196        1.33092        0.92748
C         -0.00727        1.90704        0.65962
C         -0.12208        2.06214       -0.74088
C          1.36749        1.55138       -2.80656
H          6.40465        1.82360        0.25078
H          5.06711        1.00792        1.04975
H          6.19435        1.97105        1.98784
H          2.89024        0.70080       -0.44482
H          1.59688        0.98284        1.89280
H         -0.79927        2.05319        1.38379
H         -1.02574        2.32121       -1.27536
H          2.34844        1.97429       -3.03236
H          0.60892        2.08011       -3.38216
H          1.37194        0.50560       -3.11980
C          1.08574        5.30968       -1.34102
C          1.93086        5.76845       -0.29706
C          1.24767        5.61918        0.92689
C         -0.01038        5.04278        0.65420
C         -0.12023        4.88856       -0.74688
C          5.66890        5.04140        1.04047
C          1.37485        5.40361       -2.80719
H          2.88982        6.25224       -0.43952
H          1.58898        5.96708        1.89360
H         -0.80495        4.89590        1.37542
H         -1.02185        4.62947       -1.28483
H          6.40378        5.13039        0.24807
H          5.06786        5.94604        1.04987
H          6.19662        4.98226        1.98548
H          2.35539        4.97936       -3.03143
H          0.61703        4.87757       -3.38593
H          1.38219        6.44984       -3.11847
