79
CSD_code = FUVMOA | q = 0 | S = 0 | Stoichiometry = C30H43CrN3OSi | MND = 4
Cr        10.11083        1.18959        6.90058
Si        10.53623        0.90304        3.56452
O         10.36124        1.06776        5.14250
N          8.96741       -0.06212        7.48341
C         12.44664        2.05478        1.72614
H         11.81174        1.66203        0.94389
C          6.68194        2.77256        1.62091
H          5.78909        3.20701        1.19416
C          7.78554        0.95679        2.73013
H          7.74874       -0.03545        3.15931
C         10.47300        3.83310        8.15581
H         10.00350        4.82403        8.08914
C          7.62345       -1.44743        5.93991
H          8.52231       -1.61739        5.34771
H          6.76468       -1.40342        5.27284
H          7.48669       -2.28798        6.61651
C         10.29794       -1.52662        2.00522
H         10.00273       -0.88147        1.18920
C          9.01614        2.91519        2.15181
H          9.94481        3.46882        2.13203
C         14.07302        3.06339        3.72268
H         14.70820        3.45314        4.50533
C          8.65201        3.43359        6.55852
H          8.18022        2.60418        6.01613
C         11.03797       -3.18134        4.09412
H         11.32870       -3.82615        4.91165
C          6.63983        1.50855        2.18510
H          5.71240        0.95254        2.19646
C          7.75347       -0.12124        6.70788
H          7.80958        0.66355        5.94105
C         13.58839        2.76175        1.39435
H         13.84469        2.91905        0.35596
C         10.99272       -1.81045        4.27542
H         11.24508       -1.37427        5.23642
C          9.27628       -0.35806        9.89101
H         10.20299        0.20851        9.86614
H          9.31992       -1.09367       10.69037
H          8.44898        0.32269       10.08283
C         10.71200       -3.72688        2.86310
H         10.74522       -4.79729        2.71803
C         14.40290        3.26958        2.39323
H         15.29450        3.82285        2.13437
C         10.34295       -2.89666        1.81764
H         10.08816       -3.31969        0.85604
C          6.48997        0.15146        7.54136
H          6.28779       -0.66413        8.23203
H          5.62959        0.26489        6.88534
H          6.61443        1.06772        8.11652
C         10.29673       -1.96515        8.26334
H         10.14372       -2.53123        7.34741
H         10.44283       -2.65741        9.08856
H         11.18027       -1.33790        8.15160
C          9.14580        4.41718        5.48533
H          9.53624        5.32798        5.93436
H          8.32907        4.68059        4.81625
H          9.93548        3.94461        4.90145
C          7.55461        4.07159        7.42748
H          7.28114        3.39744        8.23795
H          6.67266        4.26664        6.82132
H          7.88403        5.01309        7.86060
N          9.74979        2.89261        7.31932
C         10.61996       -0.96358        3.23468
C         12.09929        1.84376        3.05586
C          8.99320        1.64891        2.72732
C         12.93079        2.35456        4.04884
H         12.66868        2.18136        5.08654
C         11.92677        3.95156        7.68930
H         12.37880        2.96197        7.73412
H         12.47624        4.63325        8.33380
H         11.97238        4.31598        6.66517
C          7.87553        3.47410        1.60251
H          7.91641        4.45944        1.15959
C          9.09914       -1.05221        8.53770
H          8.19054       -1.66828        8.58359
N         11.43008        0.88354        7.77665
C         10.43606        3.37716        9.61670
H          9.40911        3.26562        9.95868
H         10.94254        4.10002       10.25117
H         10.93988        2.41682        9.68569
