79
CSD_code = GAVJIZ | q = 0 | S = 0 | Stoichiometry = C26H47MnP4Si | MND = 6
Mn         5.56265        1.94477       10.27258
P          5.80750       -0.27742       10.33154
P          4.05433        1.52024        8.74174
P          5.20055        4.13128       10.25380
P          4.43747        1.98714       12.18272
Si         8.01399        2.11864       10.73283
C         10.27200       -0.87772       12.56394
H         10.38562       -1.27364       13.56410
C         11.05076       -1.37172       11.53165
H         11.77007       -2.15601       11.72044
C         11.20857        4.77267       10.35190
H         11.95594        4.99206        9.60175
C         10.90883       -0.84814       10.25789
H         11.52156       -1.22115        9.44858
C         10.23901        3.81801       10.10416
H         10.24796        3.29042        9.16248
C          9.35242        0.12585       12.31557
H          8.75970        0.51701       13.13243
C          9.26259        3.51952       11.04278
C          9.18162        0.64894       11.04149
C         11.22556        5.44439       11.56210
H         11.98016        6.19258       11.75987
C         10.27449        5.14279       12.52131
H         10.28842        5.65112       13.47596
C          9.98430        0.15372       10.02271
H          9.88512        0.56013        9.02531
C          2.30391        2.12540        8.73205
H          1.82785        1.88093        9.67997
H          1.75392        1.66152        7.91351
H          2.29555        3.20601        8.60150
C          4.78222        5.19874        8.81453
H          5.66121        5.37409        8.20050
H          4.39351        6.15332        9.17214
H          4.02557        4.69739        8.21401
C          7.52579        3.28176        8.11502
H          6.79796        3.36738        7.30834
H          8.50455        3.13624        7.64807
H          7.55565        4.22807        8.65418
C          4.40441        1.85356        6.96260
H          4.43250        2.92698        6.79061
H          3.63596        1.39940        6.33682
H          5.37848        1.43257        6.72307
C          9.30977        4.18761       12.25862
H          8.57918        3.95440       13.02208
C          6.13222       -1.28864       11.83281
H          7.14958       -1.10073       12.17616
H          6.02074       -2.34871       11.60108
H          5.42838       -1.01552       12.61742
C          4.18392       -1.01799        9.83397
H          4.29005       -2.09860        9.69063
H          3.47306       -0.83690       10.64215
C          6.88036       -1.23458        9.18004
H          6.70519       -0.91097        8.15490
H          6.65014       -2.29696        9.27028
H          7.92582       -1.06941        9.43686
C          3.72559       -0.31388        8.57088
H          2.66864       -0.49861        8.36217
H          4.31582       -0.66304        7.71937
C          2.93137        0.98272       12.54508
H          2.24401        1.04556       11.70294
H          2.44322        1.35042       13.44851
H          3.21543       -0.05850       12.69368
C          3.65520        4.45760       11.22843
H          3.52778        5.53231       11.39491
H          2.81818        4.08780       10.63060
C          6.32173        5.29430       11.13624
H          6.48902        4.93509       12.15086
H          5.87879        6.29056       11.16982
H          7.28585        5.34043       10.63204
C          3.74319        3.68627       12.52958
H          2.77135        3.61105       13.02584
H          4.43794        4.18845       13.21034
C          5.23717        1.75201       13.83413
H          5.66925        0.75530       13.90872
H          4.49797        1.88787       14.62511
H          6.03491        2.48380       13.96170
C          7.16914        2.11830        9.03094
H          7.15988        2.17916       11.97480
H          7.42275        1.19743        8.48754
