39
CSD_code = GEDTOY | q = -1 | S = 0 | Stoichiometry = C15H17OS4SiW(1-) | MND = 5
W          1.47106       10.37137        2.62907
S          2.11341       12.20427        1.32130
S          1.32876       11.96267        4.40514
S          3.48610        9.60765        3.60418
S          2.08734        8.90986        0.83082
Si        -0.79528        8.41796        3.31161
O         -0.36621        9.84323        2.69698
C          1.62086       13.61777        2.24730
C          1.23464       13.50217        3.58718
C          0.84010       14.64297        4.28136
C          0.81292       15.87275        3.65520
C          1.19815       15.98495        2.32596
C          1.60234       14.86262        1.62949
C          3.73788        8.04553        2.83238
C          3.07988        7.72116        1.63779
C          3.28381        6.46494        1.07293
C          4.10449        5.54004        1.68737
C          4.75580        5.86522        2.86926
C          4.57509        7.11349        3.43370
C         -2.45347        8.61036        4.24995
C         -0.99954        7.11396        1.92032
C          0.57716        7.85873        4.53822
H          0.55041       14.53918        5.31666
H          0.49374       16.74870        4.20352
H          1.18408       16.94816        1.83473
H          1.90723       14.92921        0.59545
H          2.77781        6.23028        0.14805
H          4.23988        4.56309        1.24384
H          5.40409        5.14544        3.34946
H          5.07276        7.38677        4.35226
H         -2.35992        9.31028        5.07399
H         -2.77066        7.65520        4.65391
H         -3.23850        8.97298        3.59454
H         -0.13536        7.11776        1.26168
H         -1.87662        7.32020        1.31427
H         -1.10348        6.11540        2.33197
H          1.02566        8.73503        5.01392
H          1.37026        7.31626        4.02543
H          0.19921        7.21258        5.32550
