68
CSD_code = HADVAM | q = 0 | S = 0 | Stoichiometry = C24H39MoN3Si | MND = 8
Mo         3.13681        7.80722        4.48093
N          1.44264        8.08409        4.08181
Si        -0.17239        8.63027        3.95601
C         -1.14895        7.88642        2.48101
H         -0.59421        7.96849        1.55101
H         -2.08742        8.41588        2.34768
H         -1.39012        6.83940        2.63959
C         -0.20418       10.53059        3.71833
H          0.18524       11.03985        4.59410
H         -1.21455       10.88996        3.54915
H          0.40060       10.82785        2.86670
C         -1.14760        8.20084        5.54836
H         -1.27798        7.12847        5.65583
H         -2.13285        8.65595        5.54336
H         -0.62269        8.55648        6.42972
C          3.32462        5.95244        3.12964
C          2.63967        5.03275        2.18154
C          1.29112        5.20908        1.88750
H          0.76047        6.02465        2.35945
C          0.65867        4.35460        1.00181
H         -0.38777        4.49711        0.77471
C          1.36352        3.32076        0.40681
H          0.86763        2.65494       -0.28407
C          2.70493        3.14078        0.69904
H          3.25668        2.33511        0.23698
C          3.34441        3.99298        1.58318
H          4.39201        3.85578        1.81412
N          4.01471        7.03064        2.76429
C          4.09466        7.45934        1.39261
H          4.25903        6.59315        0.73556
H          4.96800        8.11686        1.31500
C          2.85113        8.22492        0.93903
H          2.01271        7.54482        0.80778
H          3.04171        8.73249       -0.00352
H          2.58641        8.95607        1.70316
N          3.40982        5.74957        4.44217
C          2.77514        4.63131        5.08856
H          3.33071        4.43662        6.01357
H          2.84546        3.73689        4.45265
C          1.31214        4.90837        5.43490
H          1.23854        5.88207        5.91801
H          0.92915        4.13887        6.10105
H          0.70487        4.92678        4.53294
C          5.45187        8.46169        4.89876
C          5.06992        7.64076        5.95970
C          3.88331        8.16841        6.56192
C          3.56230        9.39709        5.85876
C          4.52420        9.54568        4.78203
C          6.69186        8.26641        4.07846
H          7.57652        8.48154        4.68253
H          6.70159        8.92902        3.21651
H          6.76805        7.23834        3.72342
C          5.84526        6.44914        6.43642
H          6.10213        5.79069        5.60634
H          5.27605        5.87745        7.16528
H          6.77476        6.77388        6.90999
C          3.34964        7.78467        7.91236
H          3.36709        6.70498        8.05121
H          2.32196        8.12326        8.03053
H          3.95225        8.23845        8.70384
C          2.73225       10.51573        6.43771
H          1.81804       10.12979        6.88921
H          2.45054       11.22813        5.66378
H          3.29970       11.04830        7.20615
C          4.75103       10.80267        3.99157
H          5.42434       11.47623        4.52871
H          3.81139       11.32453        3.81907
H          5.19527       10.58241        3.02240
