74
CSD_code = HEDCID | q = 0 | S = 0 | Stoichiometry = C24H39F6MoNO2Si | MND = 4
Mo        -1.23680       11.49076       -0.10205
O         -1.59932       12.30719       -1.62713
F         -2.43918       12.33725       -5.06448
N         -1.68217        9.94098        0.53203
C         -2.14320       12.65063        1.18259
H         -2.08920       13.70936        0.89772
Si        -2.98286       12.45965        2.84775
O          0.60017       11.42311        0.35566
F         -0.90331       11.28246       -3.97888
C         -1.70674       12.45770        4.28638
H         -0.92606       11.72277        4.11831
H         -2.18337       12.22121        5.23286
H         -1.23000       13.42764        4.39669
F         -2.97388       10.84782       -3.61329
C         -4.13128       13.96406        3.16818
H         -3.57404       14.89591        3.16565
H         -4.90332       14.04332        2.40897
H         -4.62715       13.88497        4.13027
F          1.34365       12.89456       -1.68213
C         -4.05698       10.88529        2.97539
H         -4.97689       10.98664        2.40845
H         -3.52689       10.02159        2.59045
H         -4.32902       10.67766        4.00579
F          0.25166       14.13190       -0.31475
C         -2.12278       12.91365       -2.74165
F          2.38074       14.36402       -0.49282
C         -1.25694       14.09607       -3.20051
H         -1.69832       14.56977       -4.07360
H         -1.19283       14.81976       -2.39051
H         -0.25444       13.75113       -3.44981
C         -3.57094       13.34876       -2.47493
H         -3.56662       14.13861       -1.72595
H         -4.03555       13.71408       -3.38770
H         -4.13820       12.50216       -2.08408
C         -2.11313       11.84733       -3.85897
C          1.57221       12.35659        0.62324
C          2.97042       11.73543        0.46382
H          3.08245       11.33254       -0.54168
H          3.74420       12.47630        0.64681
H          3.06765       10.91992        1.17545
C          1.38802       12.98671        2.01084
H          1.60928       12.23629        2.76551
H          2.05050       13.83929        2.13925
H          0.34689       13.29608        2.12507
C          1.40575       13.44588       -0.45565
C         -2.12959        8.72240        0.87438
C         -3.09064        8.05590        0.07805
C         -3.54404        6.81067        0.47372
H         -4.28540        6.29377       -0.11546
C         -3.05751        6.20796        1.62129
H         -3.42091        5.23357        1.91292
C         -2.10352        6.84919        2.39350
H         -1.73070        6.35981        3.27988
C         -1.63184        8.10102        2.04517
C         -3.57658        8.74979       -1.17055
H         -2.70673        9.27727       -1.60345
C         -4.62453        9.80869       -0.80068
H         -5.03438       10.25534       -1.70533
H         -4.16432       10.58926       -0.18239
H         -5.43805        9.34886       -0.24285
C         -4.13352        7.80036       -2.22826
H         -5.08924        7.38596       -1.91542
H         -4.28772        8.34330       -3.15795
H         -3.44043        6.98406       -2.41690
C         -0.58899        8.84224        2.84568
H         -0.80913        9.91545        2.73446
C          0.79447        8.59690        2.23109
H          0.82076        9.00526        1.21971
H          1.56302        9.08566        2.82793
H          1.01162        7.53091        2.19058
C         -0.59449        8.48532        4.33020
H         -0.22107        7.47699        4.49433
H          0.04717        9.17218        4.87848
H         -1.60052        8.55931        4.73540
