60
CSD_code = HIPLIC | q = 0 | S = 0 | Stoichiometry = C18H37FeN3Si | MND = 4
Fe         8.60899       -1.22551       10.57871
Si         9.39816        0.62530       12.70438
N          8.52788        0.49347       11.22030
N          6.75147       -1.01154        8.82462
N          7.09880       -3.03475       11.12910
C          8.11408        1.61069       10.51040
C          6.93322        2.29561       10.83818
C          6.55889        3.41397       10.10879
H          5.64936        3.93553       10.37491
C          7.32574        3.86475        9.05068
H          7.02421        4.73814        8.49126
C          8.48070        3.18019        8.71042
H          9.08159        3.52303        7.87884
C          8.88414        2.06481        9.42244
C         10.13824        1.32964        9.05549
H         10.42301        1.53220        8.02578
H          9.98660        0.25508        9.19384
H         10.95558        1.63851        9.70730
C          6.07304        1.80953       11.96517
H          6.18764        0.73310       12.07490
H          5.02725        2.05075       11.78358
H          6.37172        2.27552       12.90327
C         10.49070       -0.94165       12.72549
H         11.27525       -0.88549       11.97895
H          9.89118       -1.82393       12.50368
H         10.95844       -1.09141       13.69124
C          8.35567        0.59131       14.32053
H          7.92268        1.56176       14.53945
H          8.98665        0.32373       15.16258
H          7.54608       -0.13006       14.28207
C         10.44774        2.22252       12.80354
H         11.32864        2.16905       12.17232
H         10.78014        2.42081       13.81742
H          9.86201        3.07529       12.47348
C          5.66905       -0.04176        8.84127
H          4.98492       -0.18373        7.98940
H          6.08388        0.96089        8.79414
H          5.09525       -0.12476        9.76027
C          7.52736       -0.82775        7.60602
H          6.92848       -1.02057        6.70293
H          8.38421       -1.49476        7.62181
H          7.88598        0.19741        7.57465
C          6.22307       -2.37028        8.91042
H          6.98820       -3.05382        8.54276
H          5.32240       -2.48702        8.28301
C          5.88826       -2.74487       10.35545
H          5.37578       -1.90274       10.82171
H          5.20320       -3.60717       10.36705
C          7.46438       -4.43664       10.99156
H          6.68561       -5.09968       11.39891
H          8.39555       -4.62206       11.52112
H          7.61740       -4.67991        9.94391
C          6.89479       -2.72434       12.54041
H          6.05497       -3.29144       12.96915
H          6.70334       -1.65797       12.65244
H          7.79700       -2.96859       13.09793
C          9.77164       -2.60282        9.68356
H         10.60566       -1.99796        9.30373
H          9.41025       -3.19346        8.83580
H         10.21049       -3.31933       10.38707
