54
CSD_code = HOBFUA | q = -1 | S = 0 | Stoichiometry = C6H28B18CoSi(1-) | MND = 10
Co         4.49045       26.85606        9.38578
Si         5.54116       30.10221        8.98388
H          4.61906       30.43688       10.10952
C          5.17096       28.48291        8.09363
C          6.17871       27.30902        8.20273
H          7.02730       27.45314        8.86707
B          3.65735       27.87687        7.76772
H          2.71710       28.51808        8.10953
B          4.60308       28.63655        6.45857
H          4.29017       29.70959        6.06932
B          6.28304       28.28127        6.77111
H          7.17730       29.05267        6.67633
B          5.50581       25.80701        7.97031
H          6.03599       24.85291        8.41903
B          3.79960       26.11592        7.61630
H          2.91885       25.33651        7.71330
B          3.75871       27.13962        6.15318
H          2.83033       27.09319        5.41708
B          5.42343       27.36708        5.54527
H          5.68719       27.48577        4.39548
B          6.49867       26.55919        6.69618
H          7.58117       26.12258        6.49518
B          4.94956       25.82041        6.28372
H          4.88508       24.83051        5.63559
C          4.98695       27.60612       11.28406
H          5.65047       28.45298       11.13602
C          3.49681       27.81801       10.93496
H          3.20510       28.79665       10.56745
B          5.46648       26.05589       11.04257
H          6.60718       25.83688       10.79957
B          5.19936       26.67136       12.70283
H          6.14268       26.88723       13.38794
B          3.92285       27.85859       12.61255
H          3.95239       28.91656       13.14327
B          2.76547       26.43031       10.41445
H          1.80262       26.49349        9.73645
B          4.02401       25.18964       10.50548
H          4.01925       24.16709        9.91789
B          4.54980       25.11157       12.22145
H          4.95842       24.09571       12.67592
B          3.55689       26.23762       13.19247
H          3.26432       26.03002       14.32216
B          2.47008       27.06151       12.06589
H          1.41731       27.55063       12.29879
B          2.82764       25.35239       11.82252
H          2.01262       24.51203       12.00535
C          7.32545       30.17407        9.68312
H          8.06248       30.11498        8.88747
H          7.54322       29.37709       10.38707
H          7.48532       31.11405       10.20475
C          5.39855       31.64670        7.86563
H          5.69332       32.54794        8.39785
H          4.37798       31.78593        7.52534
H          6.02574       31.56140        6.98421
