39
CSD_code = HOBJUE | q = 0 | S = 0 | Stoichiometry = C13H20Cl3NbOSi | MND = 11
Nb         5.09949        0.49146        3.36609
Si         4.57179        3.44646        1.13056
Cl         5.39703        4.13050       -0.62065
Cl         3.30189       -0.34718        2.13268
Cl         3.38545        1.98401        4.23202
C          5.74683        2.08874        1.73353
C          6.69680        2.19044        2.78855
H          6.86518        3.06811        3.39915
C          7.48374        1.02304        2.80261
H          8.34141        0.85117        3.43727
C          7.03027        0.17353        1.77218
H          7.49363       -0.74840        1.45400
C          5.96975        0.82717        1.11063
H          5.49895        0.49240        0.19379
O          5.91011        0.61906        5.19615
C          4.90909       -0.07217        5.64927
C          4.57430       -1.23582        4.96585
H          3.67509       -1.79129        5.22558
C          5.49238       -1.68492        3.91939
C          4.17719        0.41447        6.86890
H          4.25858        1.49850        6.93585
H          4.63690       -0.02689        7.75461
H          3.12867        0.12715        6.83075
C          6.92255       -1.94913        4.38747
H          7.58905       -2.08711        3.53761
H          6.94499       -2.86717        4.98009
H          7.30352       -1.13818        5.00972
C          4.98991       -2.85022        3.08956
H          5.58411       -2.94723        2.18095
H          3.94848       -2.71201        2.80488
H          5.07575       -3.78426        3.64886
C          4.55676        4.87367        2.39075
H          3.86996        5.65312        2.07528
H          5.53803        5.32893        2.49777
H          4.23265        4.52291        3.36632
C          2.84302        2.75252        0.74502
H          2.20743        3.51181        0.29834
H          2.35819        2.40205        1.65310
H          2.89032        1.91317        0.05424
