63
CSD_code = HOGMEV | q = -1 | S = 0 | Stoichiometry = C28H27MoO2S4Si(1-) | MND = 6
Mo         7.57213        0.75401        4.15328
S          9.52185        0.68927        2.61176
S          6.56475        1.80568        2.22310
S          9.06322        0.40599        6.09108
S          8.11783        3.07707        4.61486
Si         7.53903       -2.62995        4.15569
O          6.05123        0.86223        4.77391
O          7.83897       -1.06005        4.13804
C          9.16961        1.82807        1.34977
C          7.86721        2.31416        1.16709
C          7.60365        3.20633        0.13255
C          8.61501        3.62329       -0.70875
C          9.90715        3.14492       -0.52838
C         10.17955        2.25366        0.48705
C          9.43562        1.98107        6.75372
C          9.03566        3.15164        6.09844
C          9.37334        4.38887        6.63883
C         10.08862        4.47019        7.81721
C         10.47798        3.31049        8.47217
C         10.15386        2.07698        7.94205
C          6.27651       -2.86229        2.70131
C          6.88406       -2.27313        1.42633
C          5.00864       -2.07804        3.04910
C          5.91333       -4.32675        2.46145
C          9.18912       -3.53632        3.89963
C         10.36800       -2.79685        3.85028
C         11.59246       -3.41306        3.66720
C         11.66227       -4.78924        3.53180
C         10.50070       -5.54145        3.58080
C          9.27967       -4.91730        3.76295
C          6.73839       -3.06595        5.82506
C          6.66706       -4.36071        6.32779
C          6.06524       -4.62277        7.54575
C          5.58889       -2.29002        7.80328
C          6.18824       -2.03384        6.58304
C          5.52438       -3.58612        8.28737
H          6.59317        3.56609        0.01324
H          8.40070        4.32366       -1.50364
H         10.70253        3.47189       -1.18390
H         11.17700        1.87053        0.64172
H          9.06067        5.27840        6.11320
H         10.34233        5.43817        8.22620
H         11.03708        3.36824        9.39559
H         10.45212        1.16330        8.43333
H          7.13620       -1.22079        1.58201
H          6.17789       -2.33359        0.59711
H          7.79385       -2.80291        1.14754
H          5.25510       -1.04055        3.29271
H          4.50807       -2.51766        3.91025
H          4.31454       -2.07651        2.20761
H          5.51844       -4.77694        3.37008
H          6.78786       -4.89123        2.14615
H          5.15580       -4.40854        1.68110
H         10.31541       -1.72155        3.95499
H         12.49428       -2.81861        3.62943
H         12.61776       -5.27582        3.38826
H         10.54847       -6.61754        3.47568
H          8.38031       -5.51492        3.79680
H          7.09483       -5.17421        5.76001
H          6.01934       -5.63713        7.92011
H          5.05566       -3.78894        9.24107
H          5.17036       -1.47634        8.37832
H          6.23293       -1.01929        6.20230
