108
CSD_code = HURJOT | q = 0 | S = 0 | Stoichiometry = C50H49MoO4P3Si | MND = 6
Mo         6.40442        5.39531       14.12517
C          7.36008        4.43384       12.74548
O          7.83314        3.90117       11.84572
C          5.26636        3.83222       14.16474
O          4.63116        2.88092       14.07266
C          5.24906        5.88451       12.65342
O          4.52380        6.03114       11.77623
P          7.59178        4.70340       16.06445
C          9.05007        3.60518       16.05716
C          9.60929        3.18927       14.85862
C         10.71045        2.34997       14.85451
C         11.25613        1.91903       16.05082
C         10.69437        2.32163       17.25347
C          9.59569        3.15851       17.25934
C          6.52339        3.65843       17.10396
C          5.79756        4.07956       18.20987
C          4.92702        3.21097       18.84671
C          4.76760        1.91795       18.38308
C          5.48391        1.48971       17.27545
C          6.35186        2.35416       16.64017
C          8.22809        5.98833       17.24354
C          7.78715        7.43088       16.97646
C          8.40078        8.00504       15.69377
P          7.96859        7.18580       14.09577
C          9.57264        6.58526       13.48339
C          9.70974        6.48771       12.09952
C         10.84045        5.92172       11.54503
C         11.84615        5.43375       12.36537
C         11.71129        5.51241       13.73972
C         10.57929        6.08159       14.29693
C          7.82528        8.67123       13.04432
C          6.79043        8.76690       12.12577
C          6.67158        9.88109       11.31362
C          7.59085       10.90989       11.41614
C          8.63429       10.81620       12.32442
C          8.75833        9.70277       13.13289
C          6.26326        7.59088       17.02549
P          5.28490        6.83304       15.65253
C          4.59085        8.26864       14.77741
C          3.44558        8.00073       14.02819
C          2.87656        8.98017       13.24008
C          3.44841       10.24256       13.18570
C          4.58456       10.51598       13.92514
C          5.15757        9.53464       14.71683
C          3.79878        6.37911       16.60765
C          3.31106        5.08171       16.57356
C          2.18764        4.73816       17.30627
C          1.54466        5.69261       18.07448
C          2.02136        6.99500       18.10450
C          3.14190        7.33977       17.37459
C          8.35160        8.29554       18.13400
O          7.94969        9.63979       17.97133
C          8.92527       10.60204       18.32571
C         10.08504       10.59407       17.44300
C         11.01652       10.52599       16.68046
Si        12.50459       10.54239       15.55895
C         12.68460        8.82678       14.75076
C         14.02096       10.94149       16.64081
C         12.24587       11.88765       14.23661
H          9.17617        3.52897       13.92908
H         11.13962        2.03402       13.91512
H         12.11500        1.26382       16.05064
H         11.11345        1.97635       18.18787
H          9.14793        3.45952       18.19763
H          5.89204        5.08898       18.58506
H          4.36500        3.55329       19.70410
H          4.08419        1.24519       18.87985
H          5.35914        0.48279       16.90541
H          6.90815        2.02965       15.76828
H          9.32271        5.94427       17.19860
H          7.93647        5.70221       18.26061
H          9.49266        8.01889       15.79470
H          8.07507        9.04774       15.61535
H          8.91412        6.85588       11.46315
H         10.93637        5.85235       10.47144
H         12.72890        4.98645       11.93275
H         12.48531        5.12156       14.38492
H         10.48698        6.11998       15.37345
H          6.07259        7.96248       12.05749
H          5.85839        9.94505       10.60591
H          7.49976       11.78426       10.78836
H          9.35377       11.61940       12.39902
H          9.57999        9.63546       13.83393
H          6.03085        8.65945       17.08068
H          5.89983        7.13430       17.95368
H          3.00921        7.00924       14.07342
H          1.98982        8.76132       12.66351
H          3.00813       11.01026       12.56645
H          5.03646       11.49683       13.88242
H          6.04845        9.77364       15.28018
H          3.81801        4.34237       15.97009
H          1.81714        3.72412       17.27519
H          0.66788        5.42707       18.64700
H          1.51336        7.74240       18.69722
H          3.50778        8.35823       17.38698
H          9.44673        8.22254       18.13904
H          7.97722        7.92248       19.10112
H          9.25660       10.45562       19.36698
H          8.41471       11.56821       18.25051
H         13.58150        8.77662       14.13989
H         12.75652        8.04034       15.49658
H         11.84365        8.58884       14.10532
H         14.92948       10.97717       16.04646
H         13.91132       11.90368       17.13202
H         14.16397       10.19315       17.41460
H         13.13395       12.01008       13.62299
H         11.42331       11.63712       13.57412
H         12.02349       12.84908       14.69001
