88
CSD_code = IBEPUA | q = 0 | S = 0 | Stoichiometry = C26H57IrOP2Si | MND = 4
H          1.98083        7.99075        0.09169
H          2.32939        6.65588        1.18828
H          3.62929        7.68558        0.59647
H          2.96799       11.47918        0.35534
H          2.02741       10.12889       -0.26405
H          3.75280        9.93705        0.03252
H          1.52680       11.45313        5.38740
H          3.25729       11.20122        5.35506
H          2.17571        9.86809        4.96243
H          0.87174       13.44257        3.02238
H         -0.11249       11.99965        3.12730
H          0.56521       12.48815        1.58719
H          3.85386       13.35055        3.60853
H          3.62218       13.27447        1.87802
H          4.75343       12.18891        2.65446
H          5.09904        8.01685        2.25980
H          4.25205        6.65605        6.63120
H          5.70839        5.25269        4.29972
H          4.77798        9.95344        3.79947
H          6.23144       10.05477        2.80372
H          6.37394        9.62061        4.50209
H          6.88661        6.35030        2.73977
H          7.52040        7.38617        4.01806
H          7.53473        7.93478        2.35055
H          3.42025        8.94954        6.60134
H          5.04282        9.57565        6.30685
H          4.68036        8.73790        7.81299
H          6.65808        6.17851        5.97382
H          6.46903        7.03189        7.49826
H          6.97051        7.91906        6.06938
H          4.13060        4.62294        6.04080
H          3.88058        3.51001        4.70335
H          2.76020        4.85427        4.95065
H          4.64211        3.99442        2.46376
H          4.92448        5.65231        1.93140
H          3.31177        5.15182        2.42369
H         -1.76092        5.50758        2.98849
H         -1.21382        7.49501        5.52019
H         -0.01162        7.59656        1.02036
H         -1.48911        5.33950        5.40400
H          0.25893        5.14839        5.23916
H         -0.82913        3.88149        4.67607
H          0.20488        5.25662        1.44389
H         -0.05871        3.78824        2.38667
H          1.22304        4.91406        2.84724
H         -1.53250       10.21078        4.19352
H         -0.09497        9.67743        5.06491
H         -1.64413        9.81360        5.90485
H         -3.20204        6.86531        4.09387
H         -3.29513        8.54842        3.55038
H         -3.52985        8.15443        5.24539
H         -0.99766        9.72528        0.51386
H         -0.10584        9.87437        2.02831
H         -1.87846        9.76802        2.03428
H         -1.97386        6.15789        0.93270
H         -2.30752        7.66181        0.09385
H         -2.98399        7.39218        1.69179
Ir         2.00272        7.73637        3.95289
P          4.28702        7.25323        4.33957
P         -0.25944        7.40982        3.36544
O          1.35676        7.06583        6.81825
Si         2.35709       11.41470        3.01027
C          1.60559        7.18190        5.68458
C          2.59260        7.68263        0.94262
C          2.41785        8.63154        2.12572
C          2.54526        9.94697        1.83440
C          2.84114       10.40172        0.41098
C          2.32742       10.94719        4.85838
C          0.76499       12.42649        2.65265
C          3.78741       12.66991        2.76449
C          5.59224        8.04056        3.23820
C          4.86353        7.41399        6.12655
C          4.64982        5.42688        4.08159
C          5.75303        9.50920        3.61612
C          6.95949        7.37612        3.08934
C          4.47932        8.75625        6.74220
C          6.33062        7.11360        6.42013
C          3.80571        4.55366        5.00616
C          4.37105        5.03617        2.63416
C         -0.74058        5.59204        3.37424
C         -1.47472        8.08123        4.63007
C         -0.85800        7.89326        1.64816
C         -0.69944        4.95996        4.76128
C          0.21231        4.84169        2.44913
C         -1.16855        9.53812        4.96432
C         -2.96230        7.89388        4.35193
C         -0.96918        9.41133        1.55678
C         -2.10748        7.22730        1.07356
