69
CSD_code = IFOMIA | q = 0 | S = 0 | Stoichiometry = C18H46IrP3Si | MND = 6
Ir         6.52192        3.83409        5.99642
P          6.74772        4.11921        8.36908
P          6.22631        6.25877        5.66103
P          8.81887        3.95838        5.49069
Si         6.24071        1.43005        6.27268
C          1.92093        0.09934        9.25833
H          1.24719        0.25462        8.43542
H          1.47895       -0.30712       10.15377
C          3.22662        0.35738        9.18574
C          3.85744        0.90519        7.97301
C          5.18144        0.85204        7.77490
H          5.76519        0.37328        8.55193
C          4.10160        0.07138       10.37665
H          4.73218        0.92803       10.60927
H          4.74777       -0.78309       10.17847
H          3.49193       -0.16085       11.24679
C          2.93736        1.51499        6.95648
H          2.18352        2.13306        7.44142
H          2.42944        0.73463        6.39184
H          3.50622        2.12610        6.26575
C          5.47188        0.41486        4.81115
H          6.18303        0.30013        4.00057
H          4.58798        0.88967        4.40551
H          5.19232       -0.57783        5.14930
C          7.79328        0.30864        6.63574
H          7.46442       -0.65351        7.01627
H          8.47080        0.73480        7.36858
H          8.35860        0.11567        5.73157
C          6.22095        3.49520        3.89620
H          6.85330        2.69455        3.50576
H          6.46747        4.39071        3.32285
H          5.19765        3.22851        3.63065
C          7.72244        2.88797        9.33115
H          8.75576        2.87882        8.98966
H          7.29383        1.90559        9.15800
H          7.69750        3.11956       10.39587
C          5.16402        3.98607        9.29026
H          4.70482        3.03652        9.02294
H          4.49355        4.78508        8.98215
H          5.32691        4.03827       10.36687
C          7.40115        5.64289        9.19847
H          7.34176        5.53182       10.28120
H          6.81211        6.50836        8.90237
H          8.43835        5.81167        8.91754
C          4.76926        6.88201        6.60015
H          4.92621        6.75497        7.66859
H          3.90593        6.28665        6.30994
H          4.58184        7.93399        6.38416
C          7.39925        7.64909        6.03328
H          6.91439        8.60984        5.86273
H          8.27568        7.57893        5.39125
H          7.72708        7.59810        7.06914
C          5.68092        6.83749        3.99941
H          4.85721        6.20674        3.67228
H          6.49135        6.75309        3.27787
H          5.35243        7.87574        4.04772
C          9.95568        4.85109        6.63919
H          9.97511        4.33776        7.59906
H          9.59617        5.86663        6.79296
H         10.96795        4.88750        6.23619
C          9.22056        4.88848        3.95112
H         10.29426        5.06140        3.87239
H          8.69958        5.84352        3.94431
H          8.88543        4.30737        3.09490
C          9.88716        2.50043        5.15562
H         10.86361        2.81315        4.78446
H          9.39820        1.87430        4.41265
H         10.01273        1.92030        6.06590
H          4.98769        3.84333        6.14955
