72
CSD_code = IJEGAH | q = 0 | S = 0 | Stoichiometry = C36H28BrN2O3ReSi | MND = 6
C          2.70189        4.03169        2.83369
C          1.53569        3.17453        5.23917
C          2.59890        5.67845        5.17652
C         -0.68270        2.59992        2.94398
H         -0.11050        1.91767        3.55951
C         -1.81266        2.15062        2.27427
H         -2.10441        1.11581        2.36238
C         -2.54577        3.01773        1.48318
C         -2.12117        4.36523        1.42222
C         -2.83851        5.37841        0.72829
H         -3.74885        5.10376        0.21863
C         -2.41548        6.66551        0.72811
H         -2.97475        7.42260        0.20027
C         -1.22898        7.05661        1.40563
C         -0.76089        8.39178        1.44527
C          0.45191        8.62500        2.05674
H          0.85931        9.62367        2.09859
C          1.16945        7.58237        2.65530
C         -0.46793        6.07378        2.07054
C         -0.94887        4.72356        2.12158
C         -3.71340        2.52564        0.73941
C         -4.72209        1.83535        1.40593
H         -4.65592        1.70064        2.47570
C         -5.81337        1.35075        0.70901
H         -6.59567        0.82563        1.23633
C         -5.90223        1.53502       -0.66089
H         -6.75306        1.15278       -1.20447
C         -4.89444        2.20641       -1.33323
H         -4.95463        2.34315       -2.40283
C         -3.80665        2.70300       -0.63917
H         -3.01077        3.20810       -1.16818
C         -1.52568        9.51052        0.87736
C         -2.84201        9.74078        1.27026
H         -3.30214        9.09131        2.00101
C         -3.54297       10.81582        0.75569
H         -4.56062       10.99115        1.07139
C         -2.94293       11.66600       -0.15849
H         -3.49410       12.50187       -0.56238
C         -1.63213       11.44595       -0.54822
H         -1.15941       12.10920       -1.25730
C         -0.92291       10.37928       -0.02795
H          0.09793       10.20283       -0.33561
C          2.46971        7.88359        3.27329
C          2.56836        8.87428        4.24516
H          1.68015        9.40309        4.56139
C          3.78617        9.13519        4.84165
H          3.83980        9.88500        5.61589
C          4.93890        8.44840        4.47386
C          4.83084        7.49092        3.46948
H          5.71065        6.95163        3.15222
C          3.61830        7.19992        2.87780
H          3.55645        6.45891        2.09321
C          7.03352        7.13889        6.30049
H          6.24296        6.88010        6.99841
H          7.95424        7.24730        6.86591
H          7.15709        6.29670        5.62624
C          6.48377       10.21361        6.53640
H          6.18084       11.12071        6.02172
H          7.44312       10.41056        7.00496
H          5.76782       10.02561        7.33043
C          7.92952        9.09432        4.01633
H          7.68062        9.97725        3.43488
H          8.03408        8.26532        3.32334
H          8.90097        9.26360        4.47038
N          0.70288        6.33935        2.69178
N         -0.24184        3.84489        2.86725
O          3.50113        3.61988        2.11680
O          1.57062        2.28175        5.95838
O          3.25743        6.23242        5.93321
Si         6.60616        8.73124        5.34464
Br        -0.55616        5.64323        5.49662
Re         1.34364        4.69688        4.04195
