67
CSD_code = IWIWOA | q = 0 | S = 0 | Stoichiometry = C27H34Cl2O2SiW | MND = 5
W          1.53590        6.85335        8.49048
Si         0.78172        7.27886       11.61205
Cl         0.36171        4.98170        7.57125
Cl         2.52176        8.76465        7.38794
O          0.02478        7.75269        8.50075
O          2.95510        6.03224        7.87134
C         -0.99665        8.35947        7.75219
C         -2.36134        7.89910        8.27853
H         -2.45708        8.16233        9.33009
H         -2.44898        6.81824        8.18357
H         -3.15958        8.37401        7.71499
C         -0.85978        9.88469        7.85466
H          0.15055       10.18406        7.57685
H         -1.04723       10.20683        8.87570
H         -1.57007       10.37002        7.19107
C         -0.79751        7.90776        6.29116
H          0.21645        8.16377        5.96710
H         -1.50628        8.40805        5.63631
H         -0.94653        6.82945        6.20850
C          3.84319        5.47852        6.94493
C          5.20171        6.17555        7.10469
H          5.07246        7.25016        6.97565
H          5.91058        5.80723        6.36891
H          5.59170        5.99119        8.10444
C          3.24768        5.74474        5.55109
H          3.15710        6.82145        5.39584
H          2.25864        5.28603        5.48619
H          3.88214        5.32844        4.77355
C          3.94419        3.97160        7.22113
H          2.94818        3.53049        7.18079
H          4.35378        3.80859        8.21655
H          4.58242        3.48923        6.48658
C          1.89055        6.42752       10.39283
C          1.38305        7.26811       13.41216
C          2.06175        8.35110       13.95938
H          2.24269        9.22314       13.34634
C          2.50004        8.33267       15.27135
H          3.02328        9.18645       15.67885
C          2.26747        7.22121       16.06349
H          2.60689        7.20437       17.08927
C          1.59573        6.13172       15.53427
H          1.40951        5.26153       16.14830
C          1.16109        6.15943       14.22185
H          0.63204        5.31024       13.81329
C          0.69061        9.11761       11.09842
C         -0.36168        9.95246       11.46045
H         -1.19412        9.54262       12.01479
C         -0.36081       11.29528       11.12126
H         -1.18824       11.92707       11.41301
C          0.69946       11.82999       10.40738
H          0.70139       12.87674       10.14086
C          1.75893       11.01631       10.04156
H          2.59173       11.42521        9.48816
C          1.75211        9.67526       10.38951
H          2.61572        9.05221       10.14731
C         -0.99256        6.58548       11.67145
C         -1.44593        5.75480       10.65398
H         -0.76884        5.52320        9.83357
C         -2.72228        5.22066       10.67732
H         -3.05182        4.57092        9.87910
C         -3.57438        5.51629       11.72837
H         -4.57259        5.10342       11.75121
C         -3.13835        6.33828       12.75435
H         -3.79739        6.56666       13.58022
C         -1.85778        6.86162       12.72651
H         -1.51563        7.48472       13.54097
H          2.70543        5.83109       10.80848
