55
CSD_code = JAKDOO | q = 0 | S = 0 | Stoichiometry = C22H23Cl3MoN3OPSi | MND = 6
Mo         2.33410        3.52465        2.02479
Cl         2.45660        2.67764       -0.05386
Cl         4.04843        2.07137        2.77012
Cl         0.99797        5.28059        1.21149
O          1.09142        2.68739        2.65509
N          3.93832        4.74548        1.49339
N          6.07551        6.21869        0.98800
C          4.05488        5.16957        2.77378
N          2.94767        4.78688        3.42493
P          5.25075        4.92803        0.48693
C          5.17320        5.90546        3.26076
C          6.05733        6.50032        2.30413
C          6.98223        7.45844        2.77581
C          7.13596        7.69632        4.11309
C          6.37160        6.99330        5.05502
C          5.40265        6.12540        4.62949
C          4.64425        5.14801       -1.19306
C          5.46011        4.79427       -2.26093
C          5.01354        4.98745       -3.55547
C          3.75774        5.52937       -3.78091
C          2.95124        5.89298       -2.71430
C          3.39404        5.71075       -1.41633
C          6.20393        3.37913        0.58188
C          5.81850        2.24930       -0.13225
C          6.50480        1.06259        0.04873
C          7.56896        1.00035        0.93450
C          7.95783        2.12797        1.63865
C          7.27522        3.31813        1.46537
Si         2.17643        5.35737        4.92126
C          2.52416        7.22029        5.18033
C          2.75867        4.17767        6.31309
C          0.32316        5.09844        4.57951
H          7.60020        7.94807        2.03967
H          7.87487        8.40766        4.45160
H          6.54857        7.13972        6.10909
H          4.82199        5.56060        5.33957
H          6.43607        4.37022       -2.06795
H          5.64192        4.71163       -4.38937
H          3.40770        5.67013       -4.79279
H          1.97499        6.31814       -2.89137
H          2.77183        5.99757       -0.57781
H          4.98588        2.30364       -0.81944
H          6.20388        0.18173       -0.49834
H          8.09616        0.06881        1.07709
H          8.78816        2.07863        2.32726
H          7.56951        4.20834        2.00534
H          3.24386        7.40414        5.97042
H          1.60555        7.72879        5.45509
H          2.90190        7.68869        4.27557
H          1.91471        3.88575        6.92972
H          3.49780        4.62086        6.97424
H          3.18438        3.26906        5.88904
H         -0.27115        5.22143        5.47941
H          0.14972        4.09326        4.19574
H         -0.05148        5.80088        3.83790
