90
CSD_code = JALWUP | q = 0 | S = 0 | Stoichiometry = C44H42N2SiZr | MND = 12
C          7.87583        3.09609        6.12432
C          7.63206        3.12290        7.51773
C          7.20519        4.39707        7.89989
H          6.95840        4.68622        8.90683
C          7.20179        5.23596        6.77330
C          7.63479        4.44415        5.65198
C          7.96713        5.09401        4.42382
H          8.46295        4.54988        3.62787
C          7.77952        6.44024        4.30486
H          8.07090        6.95122        3.39663
C          7.21231        7.22173        5.35415
C          6.93717        6.62982        6.61392
C          6.93664        8.58616        5.17340
H          7.14099        9.03493        4.21069
C          6.40926        9.34265        6.18880
H          6.19018       10.38854        6.03110
C          6.15854        8.76319        7.43403
H          5.74951        9.36681        8.23087
C          6.42484        7.43394        7.64340
H          6.22510        6.98701        8.60567
C          7.88429        1.99496        8.47210
H          7.51506        2.25054        9.46333
H          8.95448        1.80303        8.54841
H          7.40778        1.06872        8.15303
C          8.91707        0.05556        5.77544
H          8.13124       -0.35602        6.39457
H          9.80174        0.15656        6.39455
H          9.14237       -0.67337        5.00383
C         10.12812        2.18284        4.06182
H         10.97355        1.92171        4.69044
H         10.22283        3.23758        3.82952
H         10.22805        1.62085        3.13815
C          6.96118        1.68847        3.86624
C          5.72213        1.09585        4.24950
C          4.70501        1.51481        3.37344
H          3.69568        1.12533        3.36495
C          5.27783        2.38782        2.41310
C          6.68350        2.48862        2.70958
C          7.54221        3.11720        1.77070
H          8.61295        3.09808        1.92069
C          7.02563        3.66380        0.63478
H          7.68051        4.12224       -0.09247
C          5.63071        3.62906        0.34085
C          4.73508        2.97505        1.22808
C          5.11859        4.21111       -0.82939
H          5.80088        4.71223       -1.50167
C          3.77948        4.14998       -1.12220
H          3.39901        4.60438       -2.02516
C          2.90244        3.49309       -0.25584
H          1.85073        3.44323       -0.49745
C          3.37178        2.91163        0.89580
H          2.69062        2.40258        1.56213
C          5.11952        5.81114        2.81941
H          4.21441        5.61264        2.22038
H          5.96771        5.30366        2.34752
H          5.31638        6.89067        2.77907
C          5.52778        0.05839        5.31823
H          5.96173        0.37081        6.26864
H          6.00350       -0.87828        5.02179
H          4.46489       -0.13402        5.46267
C          4.09770        6.07455        4.97688
C          3.25242        7.09040        4.49783
H          3.26086        7.36299        3.45420
C          2.38627        7.75524        5.34330
H          1.75049        8.53002        4.93863
C          2.31761        7.44191        6.68833
H          1.63509        7.96381        7.34079
C          3.14699        6.44754        7.18403
H          3.11593        6.19771        8.23532
C          4.02171        5.78005        6.35448
H          4.69396        5.02792        6.76753
C          4.37093        2.41293        7.45883
H          3.84811        3.07546        8.16545
H          5.43975        2.45172        7.68326
H          4.01263        1.38822        7.63665
C          2.84133        2.92735        5.68704
C          1.74522        2.53141        6.47737
H          1.90002        2.12403        7.46387
C          0.44890        2.64931        6.01682
H         -0.36423        2.33283        6.65484
C          0.17797        3.16423        4.76168
H         -0.83816        3.25793        4.41189
C          1.23989        3.56389        3.96470
H          1.05077        3.97749        2.98377
C          2.54097        3.44600        4.40721
H          3.35648        3.77616        3.76270
N          4.98301        5.36550        4.19734
N          4.15398        2.82698        6.07997
Si         8.49862        1.73931        4.97160
Zr         5.61653        3.53029        4.81976
