75
CSD_code = JEJLIW | q = 0 | S = 0 | Stoichiometry = C27H37BMoN6O2Si | MND = 6
Mo         7.83093        4.13710        0.74350
Si         8.13036        3.40357        2.93951
O          5.80613        6.16928        1.90220
O          9.90548        6.31811        1.46380
N          9.23617        2.76629       -0.22334
N          8.88910        2.14586       -1.36048
N          7.59551        4.84106       -1.24823
N          7.50081        3.97836       -2.27249
N          6.32439        2.68565        0.11311
N          6.41751        2.09533       -1.08720
C          6.45765        2.49924        5.54658
C          6.18736        3.90530        5.38610
C          7.34187        4.55306        5.05209
C          8.41272        3.53902        4.88446
C          7.77781        2.26394        5.30085
C          5.41177        1.51111        5.94131
H          4.58595        1.52090        5.22941
H          5.00602        1.76373        6.92064
H          5.81847        0.50449        5.98794
C          4.83958        4.50810        5.58974
H          4.80004        5.51187        5.17555
H          4.60180        4.56543        6.65278
H          4.07444        3.90076        5.10844
C          7.56028        6.01259        4.85686
H          8.36396        6.19457        4.14567
H          7.82570        6.48838        5.80241
H          6.66156        6.49358        4.47753
C          9.82292        3.86260        5.32735
H         10.50819        3.05386        5.08257
H          9.84338        4.01292        6.40616
H         10.17933        4.77100        4.84729
C          8.53116        0.98026        5.40065
H          7.87984        0.12500        5.23326
H          8.97480        0.87651        6.39261
H          9.33637        0.94455        4.66859
C         10.46751        2.37069        0.09200
C         10.91810        1.46092       -0.86983
H         11.86655        0.96354       -0.89790
C          9.88697        1.34418       -1.78160
C         11.21602        2.84074        1.28744
H         11.12412        3.91918        1.39922
H         12.26626        2.57935        1.18304
H         10.82884        2.37196        2.19363
C          9.82776        0.50950       -3.01008
H          8.98053       -0.17329       -2.97303
H         10.74327       -0.06956       -3.09770
H          9.72053        1.13230       -3.89685
C          7.52747        6.07164       -1.74663
C          7.38333        5.99619       -3.13479
H          7.30013        6.81333       -3.82258
C          7.37049        4.64786       -3.43437
C          7.60456        7.31250       -0.93288
H          6.86464        7.30267       -0.13488
H          7.42392        8.17539       -1.56966
H          8.58936        7.41649       -0.47924
C          7.24024        3.99972       -4.76582
H          8.11406        3.38844       -4.98642
H          7.14589        4.76573       -5.53103
H          6.36118        3.35799       -4.80046
C          5.21964        2.23244        0.70148
C          4.59017        1.31754       -0.14861
H          3.68191        0.78005        0.03572
C          5.37999        1.25767       -1.28040
C          4.76137        2.64582        2.05393
H          5.38974        2.19966        2.82618
H          3.73572        2.31604        2.20304
H          4.80912        3.72699        2.16640
C          5.17777        0.44623       -2.50919
H          5.05701        1.08760       -3.38088
H          4.28500       -0.16323       -2.39654
H          6.03065       -0.20689       -2.68658
C          6.52965        5.39348        1.43178
C          9.16121        5.48705        1.14057
B          7.55409        2.46276       -2.04743
H          7.45367        1.87738       -3.06618
