86
CSD_code = JIVFOK | q = 1 | S = 0 | Stoichiometry = C33H49NPRuSi(1+) | MND = 9
Ru         1.19842        8.82484        4.05692
H          2.38326        7.85926        4.10647
H          0.72174       10.22688        3.63682
P          2.28974        9.14062        1.97982
Si         2.73475       10.06732        5.29999
H          2.29109       11.07332        6.31871
N          3.65666       11.50248        4.21476
C          5.63714       11.54452        2.64037
H          5.69216       12.63522        2.65456
H          6.40377       11.16971        3.32223
C          4.26872       11.02637        3.00037
C          3.75072       10.26872        1.99570
C          4.69498       10.32587        0.85874
C          4.61005        9.90096       -0.46219
H          3.72269        9.44215       -0.86204
C          5.67930       10.11563       -1.31545
H          5.60906        9.78185       -2.33928
C          6.82991       10.75723       -0.88422
H          7.65327       10.90324       -1.56522
C          6.90537       11.24411        0.41044
H          7.77496       11.78687        0.74821
C          5.83394       11.03959        1.25423
C          0.31836        6.84551        4.74984
C         -0.63028        7.35493        3.81209
C         -1.06605        8.62375        4.28586
C         -0.41583        8.88733        5.54961
C          0.43290        7.78227        5.83916
C          0.78827        5.42526        4.82381
H          0.08575        4.86206        5.44219
H          1.77212        5.35059        5.28278
H          0.82298        4.95176        3.84515
C         -1.30619        6.54427        2.74866
H         -0.61713        5.87452        2.23920
H         -1.79137        7.17442        2.00752
H         -2.07705        5.93087        3.22124
C         -2.26857        9.37282        3.79996
H         -3.13456        9.04864        4.38133
H         -2.47757        9.17555        2.75110
H         -2.15820       10.44681        3.93712
C         -0.84722        9.95024        6.51362
H         -1.75816        9.62520        7.02047
H         -1.06173       10.88747        6.00426
H         -0.08576       10.13515        7.26751
C          1.07842        7.47285        7.15485
H          1.20258        8.37135        7.75386
H          2.05741        7.01446        7.02511
H          0.44792        6.77493        7.70959
C          3.11095        7.61093        1.26848
H          3.40971        7.83234        0.24242
C          4.35486        7.22034        2.05689
H          4.11321        7.05790        3.10636
H          5.12324        7.98701        1.98428
H          4.76436        6.29515        1.65606
C          2.10885        6.46529        1.24704
H          2.58893        5.55313        0.89723
H          1.27345        6.68125        0.58410
H          1.73525        6.29065        2.25407
C          1.30234        9.79093        0.51873
H          1.73113        9.35068       -0.38712
C          1.36373       11.31122        0.42013
H          0.81566       11.64093       -0.46054
H          2.38689       11.66984        0.33620
H          0.89738       11.76677        1.29178
C         -0.14670        9.33862        0.63666
H         -0.57768        9.73254        1.55512
H         -0.22224        8.25449        0.64631
H         -0.72735        9.71374       -0.20418
C          2.65515       12.50772        3.84133
H          3.11200       13.31258        3.26274
H          2.20579       12.92558        4.73847
H          1.87934       12.03381        3.24693
C          4.61881       12.14326        5.11534
H          5.41311       11.45024        5.37586
H          4.10521       12.42394        6.03136
H          5.04508       13.04614        4.67857
C          4.26687        9.30687        6.14470
C          4.32147        9.19069        7.53156
H          3.51189        9.58582        8.12702
C          5.39486        8.58328        8.15829
H          5.41594        8.50457        9.23476
C          6.44133        8.07713        7.40589
H          7.28000        7.60305        7.89223
C          6.40540        8.18041        6.02464
H          7.21708        7.78592        5.43120
C          5.32680        8.78350        5.40457
H          5.30114        8.85308        4.32602
