46
CSD_code = KAMDIM | q = 0 | S = 0 | Stoichiometry = C16H22O4RuS2Si | MND = 9
Ru        -0.11329        2.25483        2.12866
S         -0.75389        0.27545        3.31321
S          2.08108        1.35787        2.13576
Si         2.61892        3.88897        3.70404
O          0.04172       -2.98528        3.22268
O          0.91330       -2.11162        5.10396
O          3.02044       -2.29432        3.18178
O          4.08463       -0.55507        2.21847
C          0.64946       -0.67520        3.28812
C          1.85495       -0.28010        2.78983
C          0.50980       -2.06975        3.83837
C          0.91706       -3.40172        5.70346
C          3.00716       -1.15764        2.76192
C          5.25497       -1.35128        2.14027
C          1.49242        2.37756        3.47595
C          3.06444        4.63456        2.00028
C          4.21895        3.25143        4.52709
C          1.74062        5.16261        4.81905
C         -2.26279        2.72990        1.79092
C         -1.81183        2.11742        0.59488
C         -0.66952        2.61319       -0.04337
C         -0.02673        3.77916        0.45648
C         -0.52371        4.43056        1.60068
C         -1.64060        3.89877        2.28965
H         -0.05660       -3.87988        5.57995
H          1.14339       -3.24763        6.75538
H          1.68309       -4.01652        5.22774
H          5.05790       -2.26207        1.57089
H          5.59163       -1.63072        3.14117
H          6.00315       -0.74066        1.64118
H          1.43774        1.76338        4.38123
H          2.97859        3.88098        1.22149
H          4.08766        4.99640        1.99334
H          2.42608        5.47074        1.73451
H          4.69972        2.49673        3.91090
H          4.01402        2.80452        5.49522
H          4.92946        4.05685        4.68219
H          0.75474        5.42028        4.44636
H          2.32199        6.07567        4.88925
H          1.61551        4.77486        5.82454
H         -3.15736        2.35064        2.27701
H         -2.35670        1.27843        0.17995
H         -0.32974        2.17232       -0.97370
H          0.79132        4.21942       -0.10302
H         -0.08696        5.36884        1.92066
H         -2.07188        4.42875        3.13090
