49
CSD_code = KEDFEE | q = 0 | S = 0 | Stoichiometry = C18H24BCrNO3Si | MND = 9
Cr        16.80329        2.31949        5.54706
Si        20.66930        3.59693        5.50698
O         17.00645        4.99182        6.83310
O         14.04843        2.97685        6.45259
O         16.93236        1.56615        8.42284
N         20.11641        2.24382        4.49214
C         16.98148        3.96104        6.29995
C         15.09971        2.69527        6.06116
C         16.91551        1.81715        7.29285
C         18.77000        1.92713        4.31934
C         17.89631        2.80512        3.63716
C         16.60081        2.40549        3.29332
C         16.12086        1.15426        3.71262
C         16.93884        0.31136        4.46591
C         18.24906        0.71108        4.78540
C         22.57200        2.10921        4.31670
C         22.47019        3.20637        5.09407
C         20.94249        0.26369        2.95103
C         21.34581       -1.09231        3.54462
C         23.89189        1.53282        3.87675
C         24.53934        0.72509        5.00386
C         23.59705        4.02794        5.63148
C         20.05773        5.28543        4.88009
C         20.20410        3.26168        7.31696
B         21.18346        1.49617        3.93109
H         18.30359        3.72658        3.23930
H         15.99196        3.03351        2.65407
H         15.14084        0.81860        3.39439
H         16.59595       -0.67752        4.74446
H         18.91694        0.02501        5.29283
H         19.89565        0.19953        2.63799
H         21.52454        0.41087        2.03625
H         22.40393       -1.10453        3.79036
H         20.78671       -1.30022        4.45505
H         21.15125       -1.89704        2.83676
H         24.57572        2.33005        3.57359
H         23.73809        0.88358        3.01349
H         24.75251        1.36442        5.85647
H         23.87102       -0.06681        5.33470
H         25.47062        0.27491        4.66557
H         23.34361        5.08573        5.58888
H         24.52328        3.86623        5.08606
H         23.76834        3.77578        6.67808
H         19.00208        5.42290        5.09188
H         20.59166        6.08110        5.38933
H         20.21820        5.41528        3.81336
H         19.12524        3.18884        7.43531
H         20.64324        2.33582        7.67707
H         20.55158        4.06412        7.95829
