44
CSD_code = KEMVEF | q = 0 | S = 0 | Stoichiometry = C20H20Cl2SiTi | MND = 12
Ti         5.98807        2.83332        1.60132
Cl         8.03197        2.44580        0.80404
Cl         5.15752        2.51774       -0.45684
Si         8.18720        0.96880        3.91850
C          6.15750        5.07910        0.83835
H          6.43804        5.35241       -0.17118
C          4.83880        4.88818        1.30859
H          3.93690        5.00405        0.72203
C          4.90173        4.64319        2.69035
H          4.05467        4.58511        3.36077
C          6.26283        4.66501        3.07800
H          6.63228        4.64049        4.09405
C          7.03290        4.95765        1.93511
H          8.09816        5.14836        1.91637
C          5.99896        0.54123        1.96595
H          6.56034       -0.15592        1.35511
C          4.62922        0.83054        1.82723
H          3.96149        0.41145        1.08578
C          4.26199        1.70642        2.86573
H          3.25342        2.03964        3.07554
C          5.39786        1.91273        3.67849
H          5.40244        2.40547        4.64179
C          6.49256        1.21065        3.12217
C          9.10186        2.62352        4.17911
H          8.56213        3.27881        4.85799
H          9.23747        3.14205        3.23282
H         10.08332        2.45025        4.61016
C          9.21932       -0.27621        2.91777
H         10.18044       -0.44684        3.39185
H          9.40169        0.09622        1.91396
H          8.71684       -1.23568        2.83899
C          7.78982        0.26650        5.59391
C          7.54290       -0.19541        6.68462
C          7.25111       -0.74090        7.95684
C          6.95260        0.09679        9.03237
H          6.94876        1.16696        8.88509
C          6.66665       -0.44480       10.27064
H          6.43588        0.20640       11.10118
C          6.67504       -1.81905       10.45043
H          6.45090       -2.23827       11.42010
C          6.97152       -2.65500        9.38530
H          6.97821       -3.72606        9.52588
C          7.25869       -2.12416        8.14284
H          7.49047       -2.76806        7.30729
