96
CSD_code = KICYON | q = 0 | S = 0 | Stoichiometry = C42H48FeP4Si | MND = 6
Fe        10.43786        1.84523        4.30556
H         11.16168        1.68896        3.03928
P          9.36565        0.20247        3.36809
P         11.55686        3.69261        4.21701
P          9.16143        2.32923        5.95836
P         12.00264        0.62050        5.24535
Si         8.94897        3.02750        3.11889
H          7.58351        3.51529        3.52017
C          7.90932       -0.68871        4.03856
C          6.64783       -0.58760        3.46147
H          6.50124        0.03050        2.58728
C          5.57311       -1.27024        4.00443
H          4.59953       -1.18493        3.54331
C          5.73836       -2.05926        5.12959
H          4.89917       -2.59808        5.54465
C          6.98375       -2.14191        5.73110
H          7.11767       -2.74027        6.62189
C          8.05471       -1.45015        5.19712
H          9.01507       -1.47932        5.69054
C         10.32535       -1.22875        2.72971
C         11.24997       -0.90220        1.73776
H         11.36247        0.13774        1.45679
C         12.00011       -1.88127        1.11668
H         12.70820       -1.61169        0.34588
C         11.84046       -3.20891        1.48232
H         12.42508       -3.97896        1.00048
C         10.91872       -3.54446        2.45778
H         10.77897       -4.57954        2.73638
C         10.15804       -2.56430        3.07520
H          9.42129       -2.85494        3.81129
C          8.68696        0.67270        1.74878
C          8.50133        2.03397        1.56750
C          7.99960        2.48573        0.35981
H          7.85999        3.54313        0.20204
C          7.68606        1.59042       -0.64778
H          7.30362        1.95088       -1.59254
C          7.85431        0.22776       -0.44869
H          7.59791       -0.47038       -1.23323
C          8.35301       -0.23952        0.75252
H          8.47860       -1.30264        0.91316
C          9.74392        4.60955        2.44506
C         11.05966        4.77746        2.85258
C         11.85547        5.78886        2.32291
H         12.88699        5.89729        2.63423
C         11.31226        6.65241        1.38955
H         11.92277        7.43432        0.95973
C          9.97891        6.53216        1.02425
H          9.55188        7.23254        0.32005
C          9.20173        5.51471        1.54948
H          8.16198        5.42947        1.27232
C         11.65936        4.94977        5.55527
C         11.93756        4.46009        6.82707
H         12.03715        3.39266        6.94397
C         12.06706        5.30739        7.91026
H         12.29386        4.90786        8.88951
C         11.89748        6.67123        7.73619
H         11.99326        7.34236        8.57731
C         11.59271        7.16760        6.48028
H         11.44494        8.22928        6.34251
C         11.47342        6.31801        5.39367
H         11.22612        6.72878        4.42624
C         13.33738        3.57292        3.82318
C         13.63282        3.08406        2.55142
H         12.81393        2.80649        1.89947
C         14.94260        2.95365        2.13430
H         15.16075        2.57803        1.14464
C         15.97743        3.30532        2.98815
H         17.00376        3.20224        2.66692
C         15.69216        3.79666        4.25010
H         16.49657        4.08078        4.91407
C         14.37887        3.93724        4.66810
H         14.17115        4.34741        5.64762
C          9.55194        1.86131        7.69520
H          8.73982        2.18126        8.35065
H         10.47937        2.32681        8.02110
H          9.65629        0.77710        7.75036
C          8.78533        4.11541        6.22598
H          9.30889        4.47793        7.11023
H          7.71329        4.25512        6.36082
H          9.10918        4.69660        5.36321
C          7.44776        1.67623        5.99200
H          6.97813        1.78592        5.01637
H          6.86949        2.21159        6.74705
H          7.47621        0.61993        6.25379
C         11.57811       -1.01494        5.96711
H         10.86908       -0.88585        6.78441
H         12.48004       -1.49524        6.34900
H         11.14084       -1.64235        5.19233
C         13.34054        0.06479        4.12505
H         12.90706       -0.46354        3.27911
H         14.02709       -0.59449        4.65821
H         13.87871        0.93569        3.75556
C         13.10030        1.16933        6.61878
H         13.63397        2.07146        6.32401
H         13.82707        0.38064        6.81902
H         12.52366        1.35115        7.52465
