55
CSD_code = KIFFOV | q = 0 | S = 0 | Stoichiometry = C17H33ClN2SiZr | MND = 8
Zr         5.63935        6.74924       11.91896
Cl         4.68708        4.84087       12.91415
Si         8.26533        6.57123       10.46048
C          7.58674        6.50715       13.30972
C          7.94880        7.31732       12.18896
C          7.38293        9.73764       11.42202
H          6.87520       10.60951       11.83096
H          6.98102        9.53466       10.42713
H          8.43772        9.98825       11.30781
C          6.68269        7.22692       14.12886
C          7.23169        8.54741       12.33021
C          8.10123        5.12216       13.60311
H          7.51481        4.35524       13.08165
H          8.04900        4.91532       14.67203
H          9.14050        5.03352       13.29179
C          6.13696        6.76193       15.45357
H          5.26392        7.34572       15.74594
H          6.88796        6.86877       16.24078
H          5.84208        5.71162       15.40653
C          6.46311        8.50283       13.52193
C          9.52246        5.11129       10.49396
H          9.73034        4.78379        9.47988
H          9.16746        4.25093       11.04998
H         10.46759        5.42152       10.92778
C          5.73780        9.65943       14.15936
H          6.43045       10.25516       14.76033
H          4.94314        9.31254       14.82006
H          5.29663       10.31717       13.40981
N          6.59393        6.27406       10.16443
C          5.99315        5.29134        9.28386
N          3.99571        7.80571       11.50023
C          6.24385        3.86600        9.81617
H          5.93337        3.80623       10.86329
H          7.30100        3.62474        9.74660
H          5.68128        3.13443        9.23960
C          4.46845        5.53578        9.24883
H          4.26341        6.54729        8.89308
H          4.04249        5.41624       10.25612
H          3.98825        4.82527        8.57685
C          6.55213        5.41317        7.85782
H          7.61779        5.20335        7.86059
H          6.40387        6.42606        7.49144
H          6.05607        4.71508        7.18786
C          3.98552        8.94016       10.60425
H          4.15722        9.89680       11.13793
H          3.01175        9.03272       10.09050
H          4.76679        8.81414        9.84454
C          9.07494        7.79653        9.21755
H          8.35954        8.50037        8.80691
H          9.51141        7.25540        8.38489
H          9.87078        8.36530        9.68515
C          2.97651        7.93599       12.52135
H          1.96692        7.94547       12.07286
H          3.07897        8.87661       13.09787
H          3.02951        7.08688       13.21548
