93
CSD_code = KIKBEO | q = 0 | S = 0 | Stoichiometry = C39H50Cl2SiZr | MND = 12
C          0.75762        7.60361        0.83760
C          0.35133        8.32721        2.00479
C         -0.44793        9.44589        1.64879
C         -1.26418       10.28253       -0.70200
C         -1.28463        9.93626       -2.04164
C         -0.80913        8.66850       -2.47115
C         -0.13631        7.82584       -1.60277
C          0.10971        8.26239       -0.27825
C         -0.59253        9.42723        0.20985
C          0.67685        7.98154        3.43317
H          1.40004        8.69245        3.84896
H          1.07618        6.97568        3.50561
H         -0.22458        8.02507        4.04481
C         -1.18857       10.28285        2.66318
H         -1.27337       11.31860        2.33060
H         -0.62822       10.29525        3.60213
C         -1.91779       11.53751       -0.19265
H         -1.15893       12.19982        0.22906
H         -2.64727       11.30035        0.57817
H         -2.43460       12.07225       -0.98057
C         -1.88536       10.88368       -3.04663
H         -1.52889       11.89489       -2.86292
H         -2.97414       10.88180       -2.98426
H         -1.60726       10.62054       -4.06039
C         -1.10444        8.23689       -3.88363
H         -0.81751        7.20656       -4.05918
H         -0.56387        8.85523       -4.59949
H         -2.16923        8.33321       -4.09114
C          0.17484        6.40066       -1.97398
H         -0.72244        5.92159       -2.36402
H          0.48270        5.85052       -1.09198
H          0.95259        6.31871       -2.73162
C          3.47653        8.27686        0.87458
C          4.04518        8.97422        2.00335
C          4.11850        8.62364        3.35926
H          3.72970        7.66758        3.66703
C          4.68783        9.48387        4.27816
C          5.23439       10.69940        3.82905
H          5.68483       11.37367        4.54007
C          5.20953       11.06689        2.50363
H          5.63874       12.00719        2.18712
C          4.60711       10.22071        1.57506
C          4.37460       10.33972        0.16302
C          4.67500       11.33739       -0.76254
H          5.21049       12.22457       -0.45371
C          4.26815       11.18951       -2.06981
H          4.49542       11.97898       -2.76704
C          3.54156       10.06669       -2.50736
C          3.23409        9.06552       -1.60100
H          2.69010        8.18614       -1.91517
C          3.68208        9.15046       -0.26518
C          4.71557        9.17958        5.76816
C          4.08000        7.82881        6.11208
H          3.03004        7.80629        5.82897
H          4.13987        7.66598        7.18641
H          4.60368        7.01148        5.62111
C          3.92532       10.27697        6.49608
H          4.40759       11.24450        6.39322
H          3.84615       10.04588        7.55644
H          2.92365       10.35598        6.07851
C          6.16792        9.15927        6.26364
H          6.73114        8.38682        5.74385
H          6.19654        8.94957        7.33100
H          6.65982       10.11219        6.09186
C          3.04482       10.02655       -3.94478
C          2.56948        8.62997       -4.35677
H          3.35959        7.89490       -4.21509
H          2.29755        8.63407       -5.41058
H          1.69335        8.33482       -3.78874
C          1.86257       11.00133       -4.03641
H          1.09779       10.72652       -3.31189
H          1.43200       10.98706       -5.03592
H          2.18247       12.01518       -3.81107
C          4.15284       10.44593       -4.92089
H          4.42997       11.48822       -4.79741
H          3.81066       10.31542       -5.94549
H          5.03929        9.83265       -4.77297
C          2.64091        5.41973        2.23572
H          3.46240        4.75206        1.99997
H          1.74604        4.81131        2.32354
H          2.84878        5.84340        3.20947
C          3.04385        5.62905       -0.66050
H          2.97570        6.10653       -1.62830
H          2.50440        4.68946       -0.71252
H          4.09115        5.38989       -0.49787
C         -2.58410        9.70186        2.92328
H         -3.16154        9.65373        2.00279
H         -3.12343       10.31415        3.64234
H         -2.50693        8.69119        3.31811
Cl         1.88847       11.21202        2.81072
Cl         1.50874       11.75552       -0.45502
Si         2.44534        6.69478        0.81679
Zr         1.77326        9.87536        0.89709
