51
CSD_code = KOCRIE | q = 0 | S = 0 | Stoichiometry = C17H29Cl2NSiTi | MND = 8
Ti        -0.39123        0.88304        3.89730
Si        -2.19495       -1.15901        2.94122
Cl        -0.69777        2.93083        4.57248
Cl         1.52589        1.13211        2.89184
N         -1.61992        0.43249        2.55594
C         -1.20807       -1.08069        4.56589
C          0.21347       -1.19878        4.56932
C          0.74172       -0.35561        5.58323
C         -0.33992        0.32776        6.19312
C         -1.53477       -0.08350        5.54249
C          1.04919       -2.14186        3.75878
H          0.50429       -2.50098        2.89013
H          1.34222       -3.00147        4.36731
H          1.95970       -1.64615        3.41780
C          2.18382       -0.30184        5.98870
H          2.34742        0.45073        6.75707
H          2.81896       -0.06733        5.13202
H          2.49657       -1.27088        6.38283
C         -0.24324        1.23207        7.38634
H         -1.13794        1.84461        7.48582
H          0.61737        1.89768        7.30716
H         -0.13251        0.63751        8.29680
C         -2.91044        0.39036        5.90967
H         -3.60982        0.21156        5.09601
H         -2.90177        1.46118        6.12438
H         -3.27054       -0.13190        6.79956
C         -4.06983       -1.57743        3.07634
H         -4.46442       -1.61626        4.08887
H         -4.67164       -0.85341        2.52763
C         -4.19687       -2.94927        2.41658
H         -3.91183       -3.71878        3.13617
H         -5.22366       -3.14687        2.10222
C         -3.24063       -3.01210        1.23101
H         -3.57428       -2.31430        0.46123
H         -3.23267       -4.01176        0.79213
C         -1.85498       -2.61006        1.72790
H         -1.19582       -2.36512        0.89753
H         -1.41879       -3.45934        2.25288
C         -2.12241        1.36062        1.55814
C         -2.65476        0.61495        0.32796
H         -3.50525       -0.00338        0.59828
H         -1.87422       -0.01947       -0.08451
H         -2.97010        1.32473       -0.43300
C         -0.99259        2.29880        1.09800
H         -0.63012        2.90950        1.93037
H         -1.35675        2.96526        0.31825
H         -0.16437        1.71106        0.69728
C         -3.25520        2.19171        2.18749
H         -2.88845        2.69157        3.08571
H         -4.08246        1.54141        2.46457
H         -3.61452        2.94061        1.48586
