111
CSD_code = KODQUP | q = 0 | S = 0 | Stoichiometry = C50H56P2RuSSi | MND = 8
Ru        10.16129       11.19841       15.90851
P          9.56330        9.38345       17.15580
P          9.28911       12.76383       17.33387
S          8.00158       11.05564       14.64538
Si         7.68653       10.80655       12.57088
C         12.34560       11.82005       16.06216
H         12.91939       12.18813       16.90336
C         11.71988       12.63567       15.07378
H         11.72099       13.71780       15.06152
C         11.27881       11.79641       14.03395
H         10.86820       12.12519       13.09026
C         11.61793       10.45445       14.36316
H         11.56516        9.60810       13.69403
C         12.30239       10.48233       15.60346
H         12.80823        9.64425       16.06600
C          9.06381        9.81717       11.65854
H          9.97939       10.41420       11.73308
C          8.77547        9.62548       10.17321
H          8.66540       10.58275        9.66936
H          7.85970        9.05822       10.02536
H          9.59027        9.08097        9.69466
C          9.35841        8.47733       12.32298
H          9.43411        8.59679       13.40159
H         10.29353        8.05360       11.95270
H          8.56918        7.75906       12.12438
C          7.52131       12.49330       11.62522
H          7.12166       12.25988       10.63166
C          6.52881       13.43364       12.30290
H          5.52629       13.01639       12.27630
H          6.50519       14.39955       11.79730
H          6.80380       13.59696       13.34269
C          8.84556       13.22253       11.41681
H          9.57060       12.59038       10.90830
H          9.26169       13.53396       12.37221
H          8.69927       14.11765       10.81088
C          5.92699       10.00833       12.46650
H          5.46571       10.39125       11.54949
C          5.93932        8.48625       12.37858
H          6.43748        8.14282       11.47582
H          4.91883        8.10132       12.36253
H          6.44822        8.06342       13.24178
C          5.03696       10.41105       13.63924
H          5.00254       11.48865       13.76310
H          5.42507        9.98570       14.56076
H          4.02102       10.04471       13.48925
C          9.24851        7.89481       16.13861
C         10.36329        7.26083       15.59043
H         11.35225        7.64037       15.81314
C         10.21493        6.15264       14.77999
H         11.08661        5.66582       14.36657
C          8.94781        5.66893       14.49503
H          8.82907        4.80379       13.85945
C          7.83641        6.30025       15.02586
H          6.84721        5.92492       14.80566
C          7.98091        7.40928       15.84247
H          7.10765        7.89138       16.25471
C         10.82183        8.68401       18.28593
C         10.72646        7.36649       18.72997
H          9.90939        6.74511       18.38943
C         11.67017        6.85790       19.60227
H         11.59213        5.83473       19.94048
C         12.71345        7.65649       20.04609
H         13.44914        7.25425       20.72712
C         12.80856        8.96857       19.61542
H         13.61628        9.59750       19.96139
C         11.86687        9.47767       18.73825
H         11.93159       10.50186       18.39802
C          8.10057        9.42151       18.24842
C          8.13531        9.09852       19.60140
H          9.06189        8.79814       20.07018
C          6.97804        9.16114       20.35788
H          7.01459        8.91614       21.40985
C          5.77803        9.52703       19.77254
H          4.87589        9.56050       20.36560
C          5.74020        9.85945       18.42878
H          4.80850       10.15453       17.96987
C          6.89800        9.82917       17.67415
H          6.89709       10.13960       16.63717
C          9.15137       14.43732       16.61448
C          8.99570       14.55300       15.23971
H          9.00574       13.65002       14.64062
C          8.81027       15.79437       14.65829
H          8.68831       15.87775       13.58813
C          8.77648       16.92803       15.45254
H          8.63914       17.90053       15.00263
C          8.90416       16.81535       16.82869
H          8.85948       17.69942       17.44848
C          9.07874       15.57496       17.41320
H          9.15669       15.48362       18.48811
C          7.63266       12.82994       18.11317
C          6.56832       12.83488       17.21264
H          6.77511       12.68911       16.16107
C          5.27382       12.99740       17.66339
H          4.45580       13.00247       16.95799
C          5.02611       13.15459       19.01812
H          4.01415       13.28072       19.37501
C          6.08028       13.15625       19.91380
H          5.89209       13.28586       20.97011
C          7.38266       13.00629       19.46740
H          8.19257       13.03571       20.18107
C         10.43055       12.98636       18.73464
C         11.44054       13.94338       18.73081
H         11.51380       14.64499       17.91100
C         12.35174       13.99706       19.77114
H         13.13120       14.74570       19.76320
C         12.27039       13.09401       20.81849
H         12.98088       13.14306       21.63065
C         11.28554       12.11857       20.81406
H         11.23222       11.39823       21.61767
C         10.37938       12.05677       19.77220
H          9.62944       11.27640       19.73847
