54
CSD_code = KODZUY | q = 0 | S = 0 | Stoichiometry = C19H24CrN6O3Si | MND = 6
Cr         3.25772        3.44713        2.16497
Si         2.97874        3.44971        5.52576
O          4.45836        1.74519        0.03749
O          1.46259        3.40934       -0.21016
N          2.34229        1.99125        3.37254
N          2.25514        2.05379        4.74528
N          4.81472        3.47138        3.57770
N          4.63455        3.46538        4.94270
C          1.61557        0.41564        1.59627
H          2.59758        0.30800        1.14054
H          1.06352        1.14796        1.01083
H          1.09564       -0.53839        1.56144
C          1.74398        0.86751        3.00176
C          1.25749        0.18268        4.13087
H          0.73212       -0.75074        4.13445
C          1.58833        0.94429        5.21749
C          1.31059        0.68310        6.65135
H          0.77111       -0.25642        6.73688
H          0.69895        1.47210        7.08591
H          2.23229        0.60418        7.22545
C          6.74914        3.49560        2.02104
H          6.42306        4.36662        1.45666
H          7.83170        3.51420        2.11849
C          6.12331        3.48502        3.36424
C          6.81380        3.48691        4.59055
H          7.87640        3.49653        4.72505
C          5.86068        3.47404        5.57120
C          6.04556        3.46676        7.04326
H          5.59411        4.34388        7.50389
H          5.60799        2.57655        7.49224
C          2.82217        3.45162        7.40467
H          3.28644        4.32928        7.83429
H          1.78431        3.44497        7.70995
C          4.04261        2.30760        0.97178
C          2.03677        3.42318        0.80574
N          2.22587        4.82806        4.74141
N          2.29967        4.88069        3.36762
H          3.29858        2.58192        7.83713
H          6.45364        2.61312        1.45745
H          7.11016        3.47366        7.26151
C          4.00600        4.60993        0.97057
O          4.40515        5.18514        0.03694
C          1.67117        5.98627        2.99238
C          1.51882        6.42150        1.58404
H          2.49379        6.57332        1.12577
H          1.00218        5.65920        1.00487
H          0.95410        7.34944        1.54340
C          1.17979        6.67017        4.11998
H          0.63314        7.59131        4.12031
C          1.53876        5.92654        5.21015
C          1.27141        6.19624        6.64443
H          0.72177        7.13009        6.72758
H          0.67315        5.40397        7.09160
H          2.19772        6.29051        7.20869
