94
CSD_code = KOMGIF | q = 0 | S = 0 | Stoichiometry = C37H53CoN2Si | MND = 8
C          4.99250       20.14272       13.20494
H          5.02106       21.21223       13.06753
C          4.13680       19.24984       12.56654
H          3.41584       19.49699       11.80437
C          4.53210       17.92541       12.94458
H          4.16821       17.01741       12.48870
C          5.66865       18.01837       13.76660
H          6.29037       17.20119       14.09146
C          5.89893       19.38872       13.99409
H          6.75230       19.80029       14.50755
C          2.21688       18.04227       14.93752
N          1.13264       18.20668       14.12930
C          0.43528       16.91637       15.74777
H         -0.09700       16.28186       16.42583
N          1.76299       17.22321       15.92944
C          0.03954       17.53723       14.62094
H         -0.91481       17.58124       14.13816
C          1.01161       18.88884       12.88625
C          1.04817       18.13806       11.70411
C          0.82080       18.79448       10.50236
H          0.83903       18.23895        9.57823
C          0.56960       20.15298       10.47007
H          0.40074       20.64700        9.52452
C          0.52475       20.87509       11.64545
H          0.31393       21.93257       11.61051
C          0.73159       20.25630       12.87168
C          0.61149       21.05454       14.14594
H          0.88743       20.41450       14.98714
C         -0.83624       21.51067       14.34691
H         -1.15425       22.16150       13.53595
H         -0.92849       22.05794       15.28245
H         -1.50750       20.65439       14.38100
C          1.56887       22.24563       14.13609
H          2.58062       21.89555       13.95203
H          1.54603       22.75049       15.09912
H          1.29928       22.96442       13.36656
C          1.30929       16.64842       11.71214
H          1.77837       16.38198       12.66398
C         -0.00779       15.87494       11.58741
H         -0.53095       16.16449       10.67841
H         -0.66105       16.06566       12.43463
H          0.19211       14.80636       11.54590
C          2.25250       16.22460       10.58225
H          1.73738       16.21170        9.62481
H          2.62604       15.21999       10.77108
H          3.09936       16.90179       10.50696
C          2.45220       16.64718       17.03254
C          3.38770       15.62974       16.80909
C          3.97689       15.02877       17.91201
H          4.69886       14.24122       17.77205
C          3.64512       15.41525       19.19670
H          4.11389       14.93391       20.04222
C          2.71198       16.41178       19.40100
H          2.45805       16.70272       20.40838
C          2.09755       17.04358       18.32826
C          1.09449       18.14559       18.58898
H          0.77329       18.57326       17.63478
C          1.71977       19.27622       19.41002
H          2.60024       19.66774       18.90758
H          2.01232       18.92981       20.39754
H          1.00051       20.08355       19.53163
C         -0.13992       17.58971       19.30509
H         -0.87869       18.37634       19.44139
H          0.12686       17.19723       20.28309
H         -0.59674       16.78633       18.73107
C          3.70083       15.17912       15.40195
H          3.68734       16.06759       14.76349
C          2.62088       14.20272       14.92114
H          1.63538       14.66325       14.93431
H          2.59528       13.32328       15.56251
H          2.83476       13.88011       13.90432
C          5.08026       14.54077       15.25945
H          5.31650       14.42148       14.20412
H          5.11736       13.55671       15.72219
H          5.83973       15.17419       15.71005
C          3.65049       20.24843       16.13739
H          4.18305       21.17002       15.92832
H          2.61346       20.41001       16.41757
Si         6.08308       19.31489       17.45878
C          4.35869       19.16754       16.69205
H          3.75678       18.47274       17.26831
C          6.86544       21.04386       17.22204
H          6.91234       21.33742       16.17909
H          7.87771       21.06947       17.61518
H          6.29095       21.80150       17.74685
C          5.76124       19.09904       19.33641
H          5.11343       19.87778       19.72655
H          6.68791       19.13301       19.90025
H          5.28623       18.14421       19.54072
C          7.32127       17.93745       16.98897
H          6.85034       16.96234       17.07014
H          8.17556       17.94540       17.66005
H          7.69701       18.04148       15.97756
Co         3.94132       18.87454       14.72055
