66
CSD_code = KOMTIP | q = 0 | S = 0 | Stoichiometry = C23H34CrO7Si | MND = 9
Cr         2.00186        3.89757        0.41860
Si         3.86340        1.44060       -1.73356
O         -0.36727        3.01775       -2.20093
O          1.07703        2.86451       -3.90487
O          0.55019        5.20077        2.66659
O         -0.60461        0.19634       -2.93292
O          3.17956        2.43831        2.72777
O         -0.12046        1.90392        1.00395
O         -1.85189        3.01280       -5.98571
C          1.90047        3.61235       -1.76405
C          3.18913        3.18507       -1.38099
C          3.97522        4.11370       -0.67190
C          3.54131        5.41616       -0.40108
C          2.27174        5.82305       -0.83569
C          1.46971        4.93514       -1.55018
C          0.96262        2.70174       -2.50542
C         -1.14561        2.48612       -3.25486
C         -0.16873        2.48050       -4.45770
C         -1.72193        1.08852       -2.91086
C         -0.54714        3.44205       -5.60844
C         -2.38681        1.16799       -1.53386
C         -2.75716        0.70048       -3.97381
C         -0.77743       -1.07057       -2.34240
C         -0.51969        4.89656       -5.12670
C          0.47671        3.24798       -6.73413
C         -2.46427        3.69162       -7.05708
C          5.66263        1.36701       -1.09302
C          3.87692        1.13485       -3.61679
C          2.85315        0.14768       -0.75816
C          0.69056        2.68260        0.73193
C          2.76599        3.02245        1.81760
C          1.12574        4.74536        1.77283
H          4.98357        3.83692       -0.38905
H          4.20155        6.12081        0.09018
H          1.95205        6.84920       -0.69174
H          0.51270        5.24696       -1.94713
H          1.16205        1.64644       -2.25387
H         -1.98549        3.16435       -3.41938
H         -0.09213        1.46324       -4.85938
H         -1.64401        1.35880       -0.76409
H         -3.09979        1.98734       -1.52854
H         -2.91685        0.24643       -1.30724
H         -3.60713        1.37358       -3.92003
H         -2.32641        0.77145       -4.96796
H         -3.10914       -0.31461       -3.80793
H         -0.83462       -1.00590       -1.25143
H         -1.66441       -1.58660       -2.72129
H          0.10636       -1.64444       -2.62054
H          0.43624        5.08128       -4.64503
H         -0.62490        5.58325       -5.96311
H         -1.32084        5.08145       -4.41507
H          0.35688        2.26187       -7.17713
H          0.36150        4.00302       -7.50800
H          1.47428        3.32642       -6.31259
H         -2.62293        4.75158       -6.83624
H         -1.89189        3.59807       -7.98484
H         -3.43164        3.20926       -7.18813
H          5.70978        1.49239       -0.01561
H          6.09384        0.39807       -1.32243
H          6.30183        2.11668       -1.55007
H          4.04047        0.08335       -3.83080
H          2.93809        1.42804       -4.07465
H          4.66893        1.69458       -4.10680
H          2.53730        0.54242        0.20549
H          1.96140       -0.16147       -1.29373
H          3.44489       -0.74419       -0.57401
