42
CSD_code = KUCVUZ | q = 0 | S = 0 | Stoichiometry = C17H22SSiZr | MND = 12
Zr        -0.63643        2.93783        7.16433
S         -2.31556        1.05859        7.20392
Si        -1.78700        6.05378        8.36638
C         -2.89183        1.14873        8.82716
C         -3.01980        2.23590        9.61701
C         -2.71967        3.62455        9.35481
C         -1.95795        4.17228        8.37658
C         -2.29323        6.92221       10.00020
C          0.08016        6.46689        8.10738
C         -2.83535        6.89483        6.99331
C          1.70782        3.19232        8.05156
C          1.66885        1.92003        7.44063
C          0.78299        1.10708        8.17762
C          0.28517        1.87033        9.25528
C          0.84720        3.16376        9.17438
C         -0.52131        4.58353        5.29652
C         -1.69554        3.82083        5.07523
C         -1.29962        2.51264        4.72980
C          0.10638        2.45148        4.76569
C          0.59053        3.73488        5.09859
H         -3.25372        0.19457        9.19473
H         -3.48400        2.05513       10.58199
H         -3.22000        4.26881       10.08322
H         -3.36500        6.86134       10.15891
H         -1.80725        6.46912       10.85910
H         -2.02533        7.97414        9.98840
H          0.58625        6.59139        9.06013
H          0.60084        5.68226        7.55447
H          0.20177        7.39738        7.56176
H         -2.58920        6.54020        5.99802
H         -3.89275        6.70687        7.15303
H         -2.69042        7.97091        7.00560
H          2.40154        3.98875        7.80678
H          2.31801        1.58233        6.64124
H          0.60724        0.04936        8.01579
H         -0.33312        1.50051       10.06366
H          0.74753        3.94175        9.92178
H         -0.47842        5.65898        5.40367
H         -2.71056        4.20016        5.04784
H         -1.95918        1.71508        4.41182
H          0.70415        1.60572        4.44591
H          1.62700        4.05095        5.06578
