101
CSD_code = KUHLOP | q = 0 | S = 0 | Stoichiometry = C45H49CrO4PSi | MND = 9
Cr         5.50186        5.18718        3.86404
C          6.26090        6.76161        3.40665
O          6.81896        7.69280        2.99252
C          7.27367        4.92869        4.11211
O          8.43140        4.81937        4.15106
P          5.22556        5.90058        6.09071
C          4.31837        7.47131        6.37073
C          4.00763        8.27231        5.28064
H          4.29882        7.94696        4.29215
C          3.35065        9.47715        5.46033
H          3.10843       10.08763        4.60332
C          3.00710        9.89401        6.73469
H          2.49135       10.83211        6.87830
C          3.33817        9.11183        7.83064
H          3.08574        9.44401        8.82741
C          3.99559        7.90928        7.65340
H          4.26290        7.30762        8.51096
C          6.68952        6.34427        7.11148
C          6.81903        6.06106        8.46754
H          6.05388        5.50178        8.98688
C          7.93728        6.48459        9.16491
H          8.02938        6.25305       10.21641
C          8.93181        7.20157        8.52306
H          9.80356        7.52742        9.07096
C          8.80268        7.50024        7.17626
H          9.57294        8.06191        6.66969
C          7.68875        7.07651        6.47619
H          7.58433        7.30413        5.42557
C          4.36337        4.75842        7.22430
C          3.04914        4.92374        7.64487
H          2.48995        5.79587        7.33706
C          2.46264        3.98156        8.47263
H          1.44837        4.12943        8.81657
C          3.16885        2.85588        8.86370
H          2.70582        2.12336        9.50874
C          4.46986        2.67034        8.42306
H          5.02226        1.79146        8.72308
C          5.06263        3.61631        7.60961
H          6.08524        3.49890        7.27597
C          4.70571        4.97841        1.82838
O          5.02108        5.59703        0.62222
C          4.06558        5.36926       -0.39611
H          3.90753        4.29789       -0.56128
H          4.47286        5.81968       -1.29926
H          3.10180        5.83448       -0.16080
C          5.42533        3.80083        2.15473
C          6.55507        3.38115        1.24511
H          7.39021        3.01797        1.84747
H          6.90394        4.26462        0.70754
C          6.14848        2.30999        0.22723
H          7.01756        1.99751       -0.34708
H          5.40892        2.69896       -0.46850
H          5.72455        1.43380        0.71390
C          5.00388        2.98543        3.24261
C          5.67222        1.67545        3.57521
H          6.41443        1.42121        2.82195
H          4.91388        0.88871        3.58411
C          6.34966        1.70516        4.94417
H          6.87257        0.76750        5.12031
H          5.60592        1.84011        5.72307
H          7.06702        2.52263        4.99082
C          3.90345        3.38923        3.99326
O          3.37153        2.54632        4.93475
Si         2.22302        1.37313        4.89155
C          0.83313        1.86672        6.09752
H          0.15574        2.61319        5.69413
H          1.25340        2.26442        7.01553
H          0.23912        0.99808        6.36098
C          3.06083       -0.18694        5.59558
H          3.71106       -0.69212        4.88854
H          2.31324       -0.90318        5.91799
H          3.66082        0.07108        6.46261
C          1.45356        1.05297        3.14104
C          0.74404        2.30602        2.61689
H         -0.04321        2.62669        3.29475
H          0.29063        2.10412        1.64618
H          1.44323        3.13102        2.49528
C          2.51099        0.64982        2.10879
H          3.22670        1.45421        1.95119
H          2.03713        0.43207        1.15120
H          3.04951       -0.24150        2.42411
C          0.42533       -0.07857        3.23904
H         -0.36727        0.17899        3.93651
H          0.89506       -0.99805        3.57916
H         -0.02621       -0.26631        2.26539
C          3.23585        4.63558        3.74293
C          2.09426        4.98622        4.51366
H          1.80246        4.31833        5.30803
C          1.37768        6.10411        4.24154
H          0.49445        6.34568        4.81461
C          1.79576        7.00759        3.22975
C          1.10588        8.21367        3.02840
H          0.22076        8.40305        3.61929
C          1.55408        9.14432        2.12770
H          1.01711       10.07036        1.98234
C          2.73342        8.90132        1.42258
H          3.12268        9.65331        0.75240
C          3.41349        7.71852        1.58143
H          4.34603        7.57972        1.06014
C          2.94899        6.71730        2.45410
C          3.63079        5.45417        2.64551
