35
CSD_code = LAMWUR | q = 0 | S = 0 | Stoichiometry = C13H15MnN2O3Si | MND = 8
Mn         0.97804        5.47742        1.06864
C         -0.45012        6.32933        1.72032
O         -1.39368        6.81782        2.15367
C          1.15679        6.46563       -0.41119
O          1.27159        7.07948       -1.37592
C          2.21528        6.48819        1.87277
O          3.02128        7.11704        2.39768
C         -0.63515        3.28591        1.82555
C          0.54608        3.83080        2.59629
C          1.81552        3.70377        2.04661
C          1.97707        3.63974        0.63710
C          0.81067        3.67967       -0.17090
C         -0.44023        3.81022        0.42033
C         -0.69830        1.76403        1.86566
N          0.28421        1.09300        1.46894
N          1.13872        0.42564        1.13007
Si        -2.25610        0.87674        2.48131
C         -1.95896       -0.99387        2.34683
C         -3.71295        1.43392        1.38375
C         -2.55371        1.40721        4.28881
H         -1.57370        3.65260        2.24706
H          0.44576        3.88421        3.67668
H          2.69730        3.70611        2.68449
H          2.94148        3.40071        0.20300
H          0.91161        3.66172       -1.25440
H         -1.31943        3.84440       -0.21692
H         -2.82673       -1.55102        2.68435
H         -1.11267       -1.30542        2.95134
H         -1.75516       -1.29126        1.32275
H         -4.64196        0.98267        1.71794
H         -3.56518        1.14890        0.34610
H         -3.84747        2.51125        1.41296
H         -3.45755        0.95048        4.67987
H         -2.67016        2.48336        4.37780
H         -1.73161        1.11091        4.93389
