81
CSD_code = LIHCUB | q = 0 | S = 0 | Stoichiometry = C39H39NSiTi | MND = 10
Ti        22.05370        2.76765        2.70385
Si        20.69016        5.24175        2.62363
N         21.32593        4.06284        1.50734
C         21.24242        4.22622        4.12150
C         22.58146        4.17151        4.57532
H         23.29842        4.97652        4.46370
C         22.74296        3.01413        5.37245
C         21.50955        2.30130        5.35796
C         20.61231        3.01261        4.52199
H         19.55476        2.80046        4.38778
C         21.53606        6.96499        2.63443
H         21.16129        7.60513        1.84331
H         21.35203        7.47059        3.57713
H         22.61178        6.87903        2.51231
C         18.78691        5.49616        2.66357
H         18.25879        4.54690        2.64169
H         18.48922        6.01971        3.56651
H         18.44336        6.08656        1.82049
C         21.03088        4.09212        0.08237
C         22.13131        3.38676       -0.72997
H         23.10343        3.82678       -0.50832
H         22.15446        2.31991       -0.51321
H         21.93658        3.50882       -1.79377
C         20.94123        5.53349       -0.44231
H         21.86953        6.06133       -0.24023
H         20.76487        5.53124       -1.51542
H         20.12661        6.06612        0.03751
C         19.68580        3.38465       -0.16303
H         19.67382        2.42766        0.35965
H         18.87258        3.99410        0.22110
H         19.52428        3.21701       -1.22540
C         23.85609        2.53838        6.13808
C         25.06178        3.25031        6.19279
H         25.13410        4.19540        5.67594
C         26.14387        2.75883        6.88153
H         27.06818        3.31674        6.91393
C         26.04450        1.53214        7.53003
H         26.89754        1.12938        8.05685
C         24.85834        0.83390        7.51481
H         24.81776       -0.10819        8.03854
C         23.72700        1.31551        6.84361
C         21.32824        1.14724        6.18835
C         20.06926        0.54852        6.34465
H         19.21644        0.98623        5.84590
C         19.90573       -0.56884        7.12725
H         18.93029       -1.01952        7.23865
C         21.00632       -1.11483        7.77926
H         20.88825       -1.99945        8.38796
C         22.24178       -0.51793        7.67111
H         23.06384       -0.95328        8.21683
C         22.44380        0.62981        6.89345
C         24.05754        2.48519        2.19793
H         23.97851        2.30450        1.11387
C         23.85050        1.30305        3.03213
H         24.53995        1.09197        3.84661
C         22.70571        0.55678        2.93475
H         22.53521       -0.24193        3.65561
C         21.67721        0.83380        1.92509
H         22.09648        0.87960        0.90698
C         25.12206        3.45059        2.51070
C         24.99074        4.75028        2.00150
H         24.11019        4.98754        1.41007
C         25.93799        5.71891        2.26181
H         25.81336        6.71729        1.86626
C         27.05022        5.41571        3.03412
H         27.79172        6.17300        3.24053
C         27.20190        4.13416        3.53294
H         28.07010        3.88604        4.12622
C         26.25235        3.16088        3.27624
H         26.40601        2.16399        3.66256
C         20.41577        0.09902        1.94215
C         19.73796       -0.16957        0.74385
H         20.18340        0.12992       -0.19709
C         18.52182       -0.82208        0.73785
H         18.02177       -1.01315       -0.20111
C         17.94645       -1.24233        1.92633
H         16.99579       -1.75419        1.92135
C         18.61201       -1.00876        3.11906
H         18.18243       -1.34503        4.05220
C         19.82514       -0.35035        3.12978
H         20.32519       -0.18534        4.07310
