76
CSD_code = LILGIX | q = 0 | S = 0 | Stoichiometry = C30H43OScSi | MND = 8
Sc         4.31377        4.35027        5.02495
C          6.54030        4.84438        5.80066
C          6.34697        3.44243        6.02003
C          5.39407        3.26605        7.05415
C          4.98559        4.55459        7.49265
C          5.66956        5.51910        6.71680
C          7.20633        2.33278        5.48164
H          8.03681        2.14436        6.16699
H          7.62323        2.58792        4.51114
H          6.64523        1.40301        5.38872
C          5.11943        1.94182        7.71594
H          4.79016        1.18911        6.99738
H          4.35899        2.02612        8.48918
H          6.03248        1.56942        8.18623
C          4.16813        4.88787        8.71272
H          4.76304        5.49469        9.39810
H          3.87105        3.98757        9.24734
H          3.26761        5.45682        8.46777
C          5.64447        6.99348        7.01266
H          4.68550        7.28975        7.43792
H          5.82486        7.58471        6.12003
H          6.42033        7.24089        7.74177
Si         7.92481        5.54298        4.73722
C          7.72619        4.88434        2.94172
H          8.43967        4.09540        2.72308
H          7.88706        5.67050        2.21012
H          6.72559        4.48058        2.78332
C          8.01198        7.44911        4.60735
H          8.17007        7.91468        5.57364
H          7.11850        7.88012        4.16681
H          8.84874        7.72800        3.97373
C          9.62659        5.00024        5.42565
H         10.43450        5.42081        4.83453
H          9.74133        3.92177        5.41782
H          9.75942        5.33524        6.44986
C          3.94510        6.29987        4.00135
H          3.47780        7.00216        4.71010
H          4.95251        6.66291        3.74705
C          3.14260        6.19272        2.78342
C          1.77406        6.50272        2.75626
H          1.29874        6.88165        3.65230
C          1.02301        6.35498        1.60699
H         -0.03137        6.59589        1.62287
C          1.61216        5.91398        0.43335
H          1.02320        5.79445       -0.46367
C          2.97447        5.65005        0.42105
H          3.45087        5.33383       -0.49654
C          3.72562        5.79339        1.56791
H          4.79130        5.60019        1.54022
C          4.23174        2.80407        3.43841
H          4.27427        3.30794        2.46417
H          5.06582        2.09419        3.51845
C          2.95529        2.11361        3.58375
C          2.84590        0.90141        4.28840
H          3.73850        0.46650        4.72532
C          1.63731        0.24657        4.41348
H          1.58588       -0.68762        4.95662
C          0.49050        0.77239        3.83710
H         -0.45320        0.25476        3.92877
C          0.57630        1.96072        3.12265
H         -0.30903        2.36995        2.65472
C          1.78102        2.61784        2.99385
H          1.83797        3.53405        2.41881
O          2.32094        4.01470        6.01881
C          1.89979        2.90829        6.83737
H          2.20777        3.10165        7.87153
H          2.38220        1.99991        6.46941
C          0.38103        2.84921        6.73826
H         -0.06871        2.38025        7.60999
H          0.08478        2.30412        5.84197
C          0.03304        4.32707        6.60341
H          0.06070        4.81593        7.57869
H         -0.93967        4.49827        6.15015
C          1.17030        4.82393        5.71723
H          0.92398        4.69097        4.65721
H          1.42533        5.87121        5.90419
