84
CSD_code = LILGET | q = 0 | S = 0 | Stoichiometry = C35H45O2ScSi | MND = 8
Sc         3.25275       13.40611       12.02016
C          2.66633       14.92791       13.77911
C          4.08853       14.76539       13.89165
C          4.35796       13.45260       14.34115
C          3.11812       12.76917       14.47754
C          2.08165       13.67532       14.14835
C          5.11456       15.86244       13.81837
H          5.24448       16.31926       14.80287
H          4.81104       16.64315       13.12692
H          6.08577       15.47718       13.50502
C          5.68320       12.97003       14.86300
H          6.51622       13.43647       14.33846
H          5.78451       11.88788       14.78340
H          5.77646       13.22750       15.92126
C          2.91106       11.42071       15.11245
H          2.61206       11.54235       16.15634
H          3.82303       10.82613       15.09722
H          2.12347       10.85621       14.61080
C          0.62286       13.42962       14.40989
H          0.35413       12.38832       14.23648
H         -0.00425       14.06039       13.78559
H          0.39029       13.66369       15.45147
Si         1.64961       16.49396       13.58767
C          2.60405       18.12718       13.30407
H          3.32030       18.32160       14.09472
H          1.89994       18.95406       13.29634
H          3.13014       18.14163       12.35463
C          0.42630       16.30470       12.11853
H          0.77271       15.54293       11.42033
H          0.32219       17.23455       11.56850
H         -0.56480       16.01706       12.45538
C          0.67166       16.74619       15.20094
C         -0.52100       17.46137       15.21705
H         -0.90466       17.86942       14.29276
C         -1.22473       17.65891       16.39136
H         -2.15097       18.21650       16.38061
C         -0.74299       17.14181       17.58190
H         -1.29109       17.29269       18.50105
C          0.44500       16.43055       17.58743
H          0.82670       16.02531       18.51437
C          1.14137       16.23789       16.40819
H          2.06595       15.67859       16.41658
C          1.53869       12.16775       11.30473
H          1.38667       11.30842       11.97842
H          0.66291       12.83085       11.38097
C          1.68663       11.70361        9.92438
C          1.36491       12.53434        8.83762
H          0.97153       13.52429        9.03489
C          1.53098       12.11376        7.53507
H          1.27977       12.77922        6.72079
C          2.01208       10.84144        7.26129
H          2.14775       10.51532        6.24113
C          2.28982        9.98608        8.31484
H          2.63026        8.97876        8.11599
C          2.11915       10.40388        9.61989
H          2.30260        9.70432       10.42706
C          3.62258       14.94926       10.46903
H          2.76459       14.94514        9.78418
H          3.68961       15.93536       10.95014
C          4.84530       14.66643        9.72117
C          6.07275       15.26160       10.06246
H          6.10984       15.94237       10.90444
C          7.21985       15.01329        9.33493
H          8.14743       15.49232        9.61717
C          7.18646       14.17035        8.23509
H          8.08100       13.98668        7.65955
C          5.98383       13.57807        7.87411
H          5.94295       12.93094        7.00863
C          4.83620       13.81704        8.60076
H          3.90434       13.35142        8.30531
O          4.95351       11.92791       11.78687
C          6.34571       12.16631       11.55007
H          6.91210       11.89841       12.45244
H          6.46251       13.22931       11.33027
C          6.84362       11.32189       10.37703
H          6.30930       11.61922        9.46393
H          7.91535       11.46137       10.23454
O          6.64144        9.94977       10.63545
C          5.27120        9.70394       10.85791
H          5.17452        8.63717       11.06405
H          4.69099        9.96623        9.96100
C          4.77089       10.53209       12.04275
H          3.70376       10.37334       12.21192
H          5.33882       10.25340       12.94214
