84
CSD_code = LUVTOM | q = 0 | S = 0 | Stoichiometry = C34H44O4SiZr | MND = 10
Zr         6.86798        2.81532        3.27723
Si         4.68123        0.46350        2.51681
O          6.71030        4.61433        2.71160
O          6.23733        6.82520        2.33210
O          8.46366        2.30872        4.14497
O         10.43217        1.42129        4.93715
C          5.11007        3.68570        5.00175
H          4.95262        4.71040        5.31427
C          5.88504        2.72901        5.69620
H          6.39103        2.89497        6.63884
C          5.71504        1.48636        5.05971
H          6.09519        0.53738        5.42013
C          4.80705        1.65299        3.97919
C          4.46726        3.03258        3.93485
H          3.73076        3.47679        3.27439
C          7.71075        2.61999        0.62570
C          6.32354        2.30533        0.87761
C          6.23866        1.11402        1.68098
C          7.59508        0.69374        1.91274
C          8.50450        1.60191        1.26171
C          9.87668        1.34563        1.26002
H         10.55475        2.01277        0.74689
C         10.35302        0.21515        1.88783
H         11.41107        0.00358        1.88856
C          9.47776       -0.66423        2.53124
H          9.87928       -1.54715        3.00818
C          8.11945       -0.44061        2.55657
H          7.46014       -1.15191        3.03386
C          5.32964        3.09074        0.26331
H          4.28303        2.85143        0.39602
C          5.70241        4.12916       -0.56065
H          4.94150        4.71498       -1.05666
C          7.04848        4.44131       -0.78177
H          7.30008        5.26679       -1.43069
C          8.04948        3.69595       -0.19795
H          9.08764        3.92242       -0.39959
C          6.75557        5.86324        3.17101
C          7.29403        6.25684        4.33850
C          7.98921        5.32037        5.28893
H          8.00927        4.29660        4.89519
H          7.48070        5.32674        6.25701
H          9.01474        5.65430        5.46295
C          7.27628        7.69829        4.76456
H          6.69330        8.29373        4.07037
H          8.28964        8.09991        4.79700
H          6.85089        7.79146        5.76458
C          4.96888        6.54370        1.74319
H          4.94425        5.48424        1.44874
C          4.84623        7.42758        0.50883
H          5.66323        7.22017       -0.17588
H          4.89637        8.47334        0.80080
H          3.90018        7.24137        0.00787
C          3.84617        6.82140        2.74464
H          3.97773        6.20975        3.63443
H          2.88196        6.59244        2.29811
H          3.86121        7.86855        3.03812
C          9.78868        2.39159        4.20138
C          9.64715        0.63771        5.82513
H          8.73959        0.30088        5.29843
C          9.24874        1.45672        7.05432
H          8.70710        2.34802        6.74204
H         10.14036        1.76326        7.59699
H          8.61541        0.86625        7.71128
C         10.49712       -0.56691        6.20958
H         10.79281       -1.11036        5.31725
H          9.93500       -1.22749        6.86383
H         11.39520       -0.23341        6.72267
C         10.53582        3.33770        3.60675
C         12.03101        3.35876        3.74822
H         12.34889        2.65243        4.50730
H         12.36927        4.35847        4.02183
H         12.51044        3.09139        2.80563
C          9.94853        4.39950        2.71869
H          8.88579        4.21402        2.51554
H         10.48842        4.42469        1.77069
H         10.05236        5.38827        3.17184
C          4.74109       -1.36782        3.06507
H          5.08626       -2.00696        2.25945
H          3.74872       -1.70327        3.34679
H          5.38879       -1.52493        3.92056
C          3.06567        0.68670        1.51394
H          3.21671        0.44999        0.46603
H          2.67390        1.69614        1.57787
H          2.29795        0.02020        1.89171
