90
CSD_code = LUWMUL | q = 1 | S = 0 | Stoichiometry = C39H47IrOPSi(1+) | MND = 8
Ir        15.45844       -3.29132       21.32848
P         14.53086       -1.32631       20.53993
Si        17.71614       -2.15831       23.52613
O         17.50623       -2.24150       21.85595
C         16.40608       -5.35483       21.20779
C         16.23745       -4.95977       19.81366
C         14.88838       -4.75569       19.57866
C         14.17828       -4.95070       20.85398
C         15.13756       -5.46354       21.80695
C         17.70552       -5.83619       21.75374
C         17.33827       -4.94922       18.80754
C         14.21158       -4.53814       18.26746
C         12.70092       -5.15471       20.95406
C         14.79812       -6.07690       23.12630
C         15.05425       -0.87274       18.84175
C         12.70913       -1.24756       20.38662
C         14.85094        0.23363       21.44288
C         15.89544       -2.18616       24.04001
C         14.89159       -2.62082       23.17413
C         13.57947       -2.67376       23.62270
C         13.25564       -2.30665       24.92020
C         14.24742       -1.87315       25.78229
C         15.55522       -1.81791       25.34090
C         18.57742       -3.69742       24.22006
C         17.87512       -4.54539       25.07618
C         18.47595       -5.66077       25.63168
C         19.79970       -5.95125       25.34557
C         20.51707       -5.11473       24.50718
C         19.91211       -3.99947       23.95553
C         18.56864       -0.56650       24.08450
C         19.78661       -0.60166       24.75837
C         20.41425        0.56456       25.15708
C         19.83166        1.79295       24.89410
C         18.60915        1.84669       24.24529
C         17.98507        0.67760       23.85048
C         18.30937       -1.61219       20.86248
C         19.78720       -1.72861       21.10029
C         20.46733       -2.89915       20.79101
C         21.82756       -3.01003       21.01625
C         22.54555       -1.95231       21.55962
C         21.86429       -0.77492       21.85305
C         20.50770       -0.66011       21.62175
C         24.01515       -2.05875       21.81269
H         17.62191       -6.11557       22.79982
H         18.03527       -6.70803       21.18628
H         18.47928       -5.07408       21.67252
H         18.26963       -4.59691       19.24545
H         17.51091       -5.96092       18.43644
H         17.09422       -4.31725       17.95586
H         13.36679       -3.85870       18.35965
H         14.90048       -4.14866       17.52176
H         13.82821       -5.49199       17.90173
H         12.15108       -4.42459       20.36578
H         12.45336       -6.14653       20.57238
H         12.36718       -5.10191       21.98641
H         14.04663       -5.49158       23.65158
H         14.39958       -7.07976       22.96795
H         15.67630       -6.15165       23.76132
H         16.13295       -0.74057       18.80853
H         14.77677       -1.66067       18.14682
H         14.57317        0.05518       18.53669
H         12.41735       -0.30384       19.92909
H         12.34500       -2.06632       19.77256
H         12.26106       -1.32057       21.37367
H         15.91674        0.44683       21.43809
H         14.31927        1.05617       20.96637
H         14.51553        0.13042       22.47252
H         12.79120       -3.01072       22.96501
H         12.22962       -2.35906       25.25275
H         14.00216       -1.58279       26.79218
H         16.33679       -1.48649       26.00863
H         16.84424       -4.32134       25.30871
H         17.91204       -6.30376       26.29157
H         20.27042       -6.82123       25.77765
H         21.55230       -5.32806       24.28575
H         20.48573       -3.35522       23.30655
H         20.24672       -1.55377       24.97481
H         21.35944        0.51546       25.67663
H         20.32225        2.70408       25.20121
H         18.14110        2.80056       24.05098
H         17.02253        0.72675       23.36216
H         18.05006       -2.08256       19.90858
H         18.03271       -0.55197       20.82073
H         19.93308       -3.73714       20.36671
H         22.33509       -3.93028       20.76711
H         22.40607        0.06355       22.26418
H         20.00560        0.26969       21.84265
H         24.37453       -3.06703       21.62595
H         24.55738       -1.37296       21.16288
H         24.24477       -1.78754       22.84167
