69
CSD_code = MACQUD | q = 0 | S = 0 | Stoichiometry = C31H29Cl2N2O2PRuSi | MND = 6
Ru         3.58763        3.47603        2.84420
P          4.16772        4.31864        4.94186
Si         4.84141        5.84533        1.55758
Cl         4.82979        1.62674        3.54058
Cl         5.44248        6.51622       -0.28243
O          0.93134        2.43683        3.74772
O          5.42321        6.86842        2.67606
C          2.90672        5.79155        1.56882
H          2.48347        5.62312        0.57967
H          2.44642        6.68215        1.98977
H          2.59150        4.92259        2.21604
N          3.55673        2.44839        1.05738
N          5.30553        4.26366        1.93027
C          1.97404        2.82019        3.44383
C          2.64501        1.60666        0.61393
H          1.66212        1.65888        1.06628
C          2.90502        0.67019       -0.39310
H          2.11786       -0.00006       -0.70031
C          4.15218        0.61231       -0.95621
H          4.38911       -0.11316       -1.72051
C          5.14512        1.51684       -0.52971
C          6.44347        1.57181       -1.06595
H          6.71723        0.87415       -1.84258
C          7.33656        2.50915       -0.60970
H          8.32992        2.55207       -1.03229
C          6.98987        3.42190        0.38494
H          7.69535        4.16793        0.71770
C          5.73480        3.39011        0.96690
C          4.79423        2.42278        0.50522
C          5.60340        8.25996        2.59127
H          4.78503        8.74083        3.13912
H          5.55991        8.57483        1.54381
C          6.94600        8.63645        3.19627
H          7.08271        9.71319        3.14939
H          7.74665        8.15164        2.64376
H          6.99024        8.31270        4.23252
C          3.25544        3.60284        6.35302
C          2.92187        4.35932        7.47237
H          3.19178        5.40451        7.52170
C          2.23924        3.77610        8.52532
H          1.97924        4.37133        9.38860
C          1.89043        2.43696        8.47487
H          1.35493        1.98702        9.29782
C          2.23315        1.67592        7.36884
H          1.96990        0.62958        7.32835
C          2.91159        2.25317        6.31099
H          3.19421        1.65899        5.45076
C          3.90194        6.09596        5.23805
C          2.65079        6.59174        4.87955
H          1.91967        5.91040        4.45560
C          2.34048        7.92284        5.08200
H          1.36834        8.30268        4.80224
C          3.28060        8.77091        5.64742
H          3.04377        9.81333        5.80222
C          4.52143        8.27961        6.01777
H          5.24836        8.94020        6.46807
C          4.83501        6.94599        5.81680
H          5.80072        6.56311        6.11353
C          5.90230        4.03149        5.40432
C          6.89624        4.69871        4.69078
H          6.61601        5.39013        3.91101
C          8.22789        4.46275        4.97669
H          8.99630        4.98054        4.42075
C          8.57858        3.55825        5.96631
H          9.62005        3.37024        6.18333
C          7.59222        2.88785        6.66967
H          7.86303        2.17484        7.43460
C          6.25643        3.11810        6.39174
H          5.49180        2.58027        6.93270
