42
CSD_code = MAJXAX | q = 0 | S = 0 | Stoichiometry = C20H18Cl2SiZr | MND = 12
Zr        10.32906       -0.28729        0.54687
Cl         8.61904       -1.84612        0.20823
Cl        11.91361       -1.95050        0.85774
Si        10.54236        3.02966        0.59215
C         10.67575        1.72906       -0.77634
C          9.52532        1.11664       -1.35479
H          8.54186        1.57332       -1.40360
C          9.87366       -0.08641       -1.98716
H          9.22164       -0.70226       -2.59346
C         11.27321       -0.28316       -1.80652
C         11.77329        0.83569       -1.02794
C         12.15788       -1.28419       -2.25115
H         11.78904       -2.10306       -2.85472
C         13.48398       -1.19434       -1.91189
H         14.17604       -1.95365       -2.24236
C         13.96920       -0.12772       -1.13429
H         15.02017       -0.10197       -0.88791
C         13.14322        0.87620       -0.69286
H         13.54618        1.71429       -0.13987
C         10.14888        1.72641        1.90707
C          8.86515        1.11327        2.00427
H          7.93660        1.57039        1.67717
C          8.94791       -0.09138        2.71886
H          8.11482       -0.70821        3.03112
C         10.31139       -0.28817        3.08272
C         11.06912        0.83209        2.55462
C         10.96130       -1.29029        3.82821
H         10.39126       -2.11040        4.24455
C         12.31674       -1.19986        4.01886
H         12.83173       -1.95991        4.58616
C         13.06034       -0.13154        3.48642
H         14.12597       -0.10504        3.65856
C         12.46347        0.87325        2.76595
H         13.04593        1.71246        2.40956
C          9.04223        4.17139        0.30005
H          8.12705        3.62011        0.11229
H          9.21587        4.81902       -0.55245
H          8.87191        4.80581        1.16312
C         12.07153        4.12465        0.89078
H         12.97872        3.56400        1.08088
H         11.90270        4.77395        1.74331
H         12.25094        4.75580        0.02681
