65
CSD_code = MEFQAP | q = 0 | S = 0 | Stoichiometry = C27H35NSiZr | MND = 10
Zr         5.97702        2.31079       14.34906
Si         5.83245        0.35295       12.03372
N          4.80473        1.07218       13.20901
C          5.56880        1.86357       16.48365
H          6.31102        2.47416       17.03360
H          5.40526        0.92110       17.02171
C          4.29821        2.60781       16.27458
H          3.37456        2.18093       16.67123
C          4.22929        3.76844       15.56090
H          3.25147        4.23033       15.40481
C          5.41153        4.39125       14.90677
H          6.19811        4.63830       15.64770
H          5.13883        5.30269       14.36082
C          7.38922        1.18662       12.76531
C          7.86681        0.83024       14.06337
C          8.43525        1.97114       14.68252
C          8.30260        3.06319       13.77512
C          7.65246        2.58168       12.61130
C          7.76226       -0.53963       14.68205
H          8.49574       -0.66433       15.47841
H          7.94870       -1.30450       13.93054
H          6.75880       -0.70463       15.09956
C          9.16573        1.99820       15.99996
H          8.74882        1.26836       16.69548
H          9.10490        2.98376       16.46401
H         10.22453        1.76485       15.85915
C          8.87873        4.44526       13.94114
H          9.10354        4.65546       14.98618
H          8.18546        5.20749       13.57828
H          9.81085        4.54235       13.37821
C          7.36906        3.41774       11.39049
H          7.37029        2.79384       10.50002
H          8.13690        4.18262       11.26728
H          6.39452        3.91842       11.45704
C          5.90021       -1.57174       11.99585
H          5.81221       -2.01453       12.98193
H          6.82357       -1.92720       11.55096
H          5.08406       -1.95288       11.38978
C          5.51836        0.79204       10.18659
H          4.68467        0.20798        9.81036
H          6.38051        0.56059        9.56981
H          5.26721        1.83675       10.04037
C          3.36453        0.93110       13.34030
H          2.99422        1.73200       14.01468
C          3.03148       -0.40020       14.02887
H          3.38404       -1.23382       13.42797
H          1.96330       -0.49850       14.20959
H          3.55828       -0.41805       14.98483
C          2.69631        1.13576       11.99600
C          1.98314        0.14856       11.36644
H          1.85413       -0.81379       11.83475
C          1.39891        0.35301       10.10738
H          0.84696       -0.45364        9.64668
C          1.52267        1.55529        9.47546
H          1.07166        1.72371        8.50808
C          2.25199        2.60191       10.07760
C          2.39733        3.84809        9.43277
H          1.92843        3.98630        8.46878
C          3.11427        4.85875       10.00703
H          3.21921        5.81093        9.50809
C          3.72686        4.65507       11.25192
H          4.29686        5.45863       11.69914
C          3.60880        3.45643       11.90405
H          4.12447        3.31614       12.85842
C          2.85797        2.39475       11.34652
