214
CSD_code = MUHKAC | q = 0 | S = 0 | Stoichiometry = C121H86N4ORuSi | MND = 6
Ru         7.13689       16.95254       20.64858
Si         8.03345       18.31432       17.50218
O          6.17142       15.17885       22.86599
C          6.77659       15.78153       22.10454
N          9.12352       16.52118       20.45277
N          6.68246       15.35040       19.44783
N          5.13947       17.34462       20.89811
N          7.60492       18.47033       21.93291
C          7.06883       18.14981       19.11550
H          6.23481       18.87125       19.10317
C          9.90689       18.05825       17.73592
H         10.26440       18.55230       18.63306
H         10.46351       18.46151       16.89549
H         10.14804       17.00615       17.82036
C          7.35379       17.04066       16.24200
H          7.42002       16.02889       16.62947
H          7.93366       17.07786       15.32568
H          6.31765       17.23388       15.98426
C          7.81915       20.06229       16.74431
H          8.02920       20.83406       17.47751
H          6.81684       20.23311       16.36338
H          8.50531       20.20247       15.91471
C         10.15520       17.17541       21.04746
C         11.38900       16.49550       20.75280
H         12.35891       16.80277       21.09233
C         11.07235       15.41713       20.00083
H         11.73306       14.67556       19.59414
C          9.64449       15.43219       19.82503
C          8.94356       14.45728       19.11547
C          7.56184       14.47179       18.90031
C          6.84354       13.52658       18.09587
H          7.28724       12.71902       17.54865
C          5.53236       13.86342       18.16601
H          4.70869       13.40048       17.65926
C          5.43381       14.98849       19.05175
C          4.22912       15.56762       19.47112
C          4.11370       16.64650       20.34908
C          2.86758       17.17967       20.83176
H          1.89497       16.80376       20.58194
C          3.17098       18.21226       21.65075
H          2.49427       18.85771       22.17499
C          4.60592       18.29543       21.70396
C          5.32128       19.21301       22.47278
C          6.71450       19.27955       22.56409
C          7.42792       20.21771       23.38455
H          6.97494       20.96214       24.00934
C          8.74788       19.96122       23.22280
H          9.57882       20.47136       23.67069
C          8.84929       18.85542       22.31370
C         10.04931       18.26302       21.91752
C          9.67960       13.23484       18.69946
C         10.05300       12.33417       19.70468
C         10.69550       11.14840       19.38020
H         10.96004       10.46498       20.17426
C         10.95389       10.80800       18.05716
C         10.58934       11.71071       17.06589
H         10.82003       11.49523       16.03223
C          9.97920       12.92130       17.37272
C          9.79374       12.61024       21.13325
C          8.50161       12.70418       21.63700
H          7.65376       12.61672       20.97181
C          8.29802       12.86971       22.99549
H          7.28947       12.91328       23.37817
C          9.37533       12.96668       23.85966
H          9.21580       13.08641       24.92144
C         10.66484       12.90065       23.36067
H         11.50899       12.98504       24.02964
C         10.87158       12.71073       22.00756
H         11.87742       12.64233       21.61785
C         11.60983        9.53783       17.71580
C         12.66507        9.05345       18.48512
H         13.01371        9.62668       19.33188
C         13.28439        7.86143       18.15938
H         14.10587        7.50087       18.76152
C         12.85680        7.13083       17.06345
H         13.34007        6.19870       16.81058
C         11.80658        7.60154       16.29324
H         11.46646        7.03374       15.43924
C         11.18964        8.79604       16.61432
H         10.36105        9.15085       16.01868
C          9.76198       13.85559       16.24745
C          8.88594       13.54277       15.21461
H          8.28109       12.64926       15.27785
C          8.79082       14.36227       14.10481
H          8.10360       14.11231       13.30962
C          9.58598       15.49145       14.00525
H          9.52443       16.12087       13.12919
C         10.46615       15.80553       15.02679
H         11.09465       16.68034       14.95029
C         10.55074       14.99501       16.14366
H         11.25651       15.22225       16.92937
C          2.97769       14.96432       18.95731
C          2.64743       13.64900       19.30196
C          1.50945       13.05871       18.77041
H          1.27904       12.03587       19.03145
C          0.67013       13.76018       17.91144
C          0.98196       15.08164       17.61085
H          0.32710       15.65092       16.96712
C          2.12062       15.69094       18.12168
C          3.47417       12.88829       20.25962
C          3.97183       11.63376       19.92254
H          3.76940       11.22622       18.94211
C          4.73734       10.91712       20.82365
H          5.13389        9.95154       20.54453
C          4.99155       11.43237       22.08335
H          5.58447       10.86691       22.78771
C          4.47750       12.66904       22.43551
H          4.65282       13.07183       23.42202
C          3.73291       13.39906       21.52775
H          3.33407       14.36262       21.81093
C         -0.52869       13.12509       17.34510
C         -1.33394       12.30077       18.12749
H         -1.08307       12.14220       19.16637
C         -2.46244       11.70758       17.59324
H         -3.08140       11.07542       18.21346
C         -2.80213       11.92336       16.26817
H         -3.68294       11.45794       15.85109
C         -2.00698       12.73898       15.48055
H         -2.26516       12.90775       14.44504
C         -0.88112       13.33748       16.01430
H         -0.25536       13.96014       15.39122
C          2.38862       17.10631       17.80611
C          1.37616       18.04842       17.96929
H          0.40087       17.72828       18.30812
C          1.61633       19.38889       17.73268
H          0.82541       20.11045       17.87767
C          2.86892       19.80674       17.31660
H          3.05760       20.85548       17.13802
C          3.87371       18.87343       17.12728
H          4.85035       19.18570       16.78859
C          3.63874       17.53343       17.37192
H          4.42764       16.81232       17.22030
C          4.55004       20.19656       23.26881
C          3.80215       19.79307       24.37894
C          3.11442       20.74348       25.12249
H          2.53121       20.42170       25.97332
C          3.16237       22.09363       24.79222
C          3.90002       22.48170       23.67833
H          3.94850       23.52511       23.40182
C          4.58258       21.54821       22.91178
C          3.70727       18.36841       24.75220
C          4.83997       17.58282       24.93966
H          5.82369       18.02055       24.84502
C          4.71223       16.24496       25.26606
H          5.59786       15.64577       25.41311
C          3.45958       15.67119       25.39826
H          3.36359       14.62255       25.64023
C          2.32753       16.44901       25.22597
H          1.34624       16.00965       25.33331
C          2.45123       17.78972       24.91408
H          1.56608       18.39433       24.77323
C          2.44208       23.08917       25.59965
C          2.44119       23.00816       26.99017
H          2.99068       22.21543       27.47712
C          1.76639       23.94595       27.74908
H          1.77924       23.87443       28.82711
C          1.07706       24.97634       27.13190
H          0.54821       25.70734       27.72549
C          1.06912       25.06475       25.74990
H          0.52964       25.86432       25.26299
C          1.74792       24.13117       24.98936
H          1.72498       24.19556       23.91104
C          5.32931       21.98332       21.71528
C          6.30448       22.96971       21.81650
H          6.51642       23.41171       22.77982
C          7.01371       23.37294       20.69991
H          7.77704       24.13207       20.79321
C          6.74381       22.80743       19.46566
H          7.29062       23.12961       18.59095
C          5.76097       21.83862       19.35298
H          5.53649       21.40429       18.39039
C          5.05998       21.42406       20.46975
H          4.28609       20.67621       20.37219
C         11.29325       18.71010       22.58875
C         12.28514       19.40624       21.89382
C         13.48749       19.70512       22.52292
H         14.25256       20.22861       21.96803
C         13.71756       19.34543       23.84572
C         12.69814       18.71072       24.54769
H         12.84054       18.46356       25.58986
C         11.49251       18.39155       23.93816
C         12.05753       19.90982       20.52660
C         10.94021       20.69339       20.24973
H         10.21052       20.88134       21.02312
C         10.77424       21.25658       18.99812
H          9.91026       21.87471       18.80466
C         11.71100       21.03502       18.00293
H         11.57954       21.47689       17.02624
C         12.81664       20.24379       18.26540
H         13.54856       20.06232       17.49153
C         12.99332       19.69096       19.52062
H         13.85932       19.07702       19.72399
C         14.99815       19.65372       24.49892
C         15.62925       20.87722       24.28763
H         15.16248       21.61422       23.65017
C         16.83125       21.16476       24.90679
H         17.30669       22.12034       24.73883
C         17.42499       20.23365       25.74242
H         18.36500       20.45852       26.22429
C         16.80720       19.01306       25.95765
H         17.26770       18.28153       26.60588
C         15.60251       18.72572       25.34377
H         15.13183       17.76621       25.50275
C         10.40738       17.80077       24.74635
C          9.72071       16.65210       24.36615
H         10.01557       16.10811       23.48044
C          8.66482       16.18871       25.12990
H          8.13645       15.30179       24.81473
C          8.28609       16.85282       26.28404
H          7.45725       16.49283       26.87602
C          8.97922       17.98275       26.68214
H          8.69395       18.50370       27.58462
C         10.03202       18.45105       25.91964
H         10.56008       19.34464       26.22166
