40
CSD_code = MUVCUB | q = 0 | S = 0 | Stoichiometry = C13H19Cl3N3NbSi | MND = 6
Nb         4.23569        1.58022       -2.53050
Cl         3.54618        3.59441       -3.36156
Cl         6.25290        1.46243       -3.74218
Si         6.70282        3.48769        4.64891
Cl         2.06599        0.69855       -2.15044
C          8.42686        2.70794        4.91437
N          4.78906        1.98175       -0.88918
N          4.71334       -0.66418       -2.26646
C          4.58326       -1.77780       -2.49749
N          3.52842        0.65104       -4.82612
C          5.20365        2.32041        0.33099
C          5.39007        1.34411        1.32673
C          5.89897        4.00021        1.91824
C          4.42953       -3.17088       -2.75895
H          4.85822       -3.40755       -3.73238
H          3.36746       -3.41644       -2.75847
H          4.93746       -3.74818       -1.98678
C          3.16078        1.37539       -5.63361
C          5.82603        1.70923        2.57958
C          5.46846        3.66338        0.65473
C          6.09090        3.03908        2.91031
C          5.48351        2.78812        5.94202
C          6.82237        5.37942        4.85288
H          5.86551        5.85991        4.67303
H          7.54463        5.80889        4.16544
H          7.13525        5.64203        5.85898
C          2.70113        2.27558       -6.64259
H          2.66223        3.27842       -6.21322
H          1.70513        1.98377       -6.97494
H          3.39142        2.26862       -7.48607
H          5.40880        1.70749        5.87060
H          9.14642        3.08849        4.19567
H          8.39209        1.62889        4.79948
H          6.09445        5.03767        2.14546
H          4.48562        3.19337        5.80417
H          5.18264        0.31288        1.07039
H          5.79977        3.02776        6.95283
H          5.96681        0.94411        3.32985
H          8.80955        2.92041        5.90814
H          5.32131        4.41001       -0.11540
