67
CSD_code = NADQER | q = 0 | S = 0 | Stoichiometry = C14H40B9N2SiTa | MND = 9
Ta         6.73552        7.75792       18.67396
Si         7.73833       10.51106       21.87067
C          5.82614        7.47799       15.86335
C          5.04474        8.73732       16.30067
H          4.03233        8.55414       16.65779
C          5.05230        6.15598       15.94812
H          4.19808        6.25984       16.62734
H          4.63611        5.90087       14.96749
C          5.89099        4.95433       16.38987
H          6.79303        4.92338       15.77644
H          5.32979        4.02520       16.20092
C          7.50105        4.24410       18.02778
H          7.36926        3.19258       17.73715
H          7.76337        4.28467       19.08348
H          8.31934        4.66857       17.44867
C          5.22745        4.48568       18.65701
H          5.07461        3.41102       18.48173
H          4.28938        4.99921       18.46150
H          5.49293        4.63778       19.70314
C          4.55806        7.83445       19.44169
H          4.43963        7.41671       20.44660
H          3.87875        7.27083       18.79932
H          4.16690        8.85145       19.47820
C          8.44377        7.17657       19.94794
C          9.85078        7.00221       19.39106
H         10.60984        7.30574       20.11668
H          9.97312        7.60279       18.48987
H         10.03239        5.95622       19.14591
C          8.25140        6.41789       21.25935
H          8.94691        6.78033       22.01982
H          8.43699        5.35283       21.12296
H          7.23392        6.55859       21.62923
C          8.67381        9.64012       20.43313
H          8.76680       10.35173       19.60318
H          9.68603        9.35911       20.73532
C          5.89180       10.55702       21.41407
H          5.33237       11.24812       22.03684
H          5.44616        9.57285       21.52480
H          5.76361       10.85998       20.37836
C          8.43723       12.27778       22.05716
H          7.95516       12.79898       22.87752
H          8.27738       12.86351       21.15770
H          9.50386       12.26992       22.25822
C          7.99131        9.54572       23.50429
H          7.49311       10.04465       24.32994
H          9.04313        9.46370       23.76279
H          7.58814        8.53998       23.43878
N          6.28579        5.02214       17.80524
N          7.96250        8.48955       19.94998
B          5.94557        9.90394       16.95289
H          5.50575       10.58251       17.81940
B          7.63338        9.25650       16.88572
H          8.58523        9.64306       17.47926
B          7.42552        7.62711       16.12647
H          8.13995        6.68542       16.28072
B          5.20465        8.54031       14.59854
H          4.27066        8.15523       13.99087
B          5.33041       10.13339       15.29084
H          4.46292       10.90942       15.11466
B          7.01763       10.44033       15.68758
H          7.50850       11.51252       15.67613
B          7.95272        8.97469       15.14234
H          9.06986        9.06009       14.77036
B          6.79402        7.83567       14.46047
H          7.00038        6.97636       13.67882
B          6.57780        9.57233       14.17675
H          6.72302       10.04781       13.10916
