108
CSD_code = NASWIP | q = 0 | S = 0 | Stoichiometry = C36H65N2OP2ScSi | MND = 6
Sc         2.13273        3.09594        4.64561
P          4.20768        1.39761        5.46420
P          0.23867        4.60101        6.03037
Si        -0.51086        1.76103        2.40273
O          3.77954        4.34599        3.43752
C          1.74352        0.35763        6.20343
C          2.76685        5.55926        6.61048
C          2.17479       -0.85867        6.73449
H          3.22091       -1.11867        6.68809
C          2.42005        6.70190        7.33625
H          1.38602        7.00793        7.38120
C          1.28308       -1.75187        7.30916
C          0.36669        0.63492        6.24743
H          0.02537        1.57167        5.79770
C         -0.53352       -0.24342        6.81627
C          4.12741        5.20125        6.57533
H          4.40052        4.29833        6.01804
C          3.57232        5.70929        3.07253
H          2.71411        6.08250        3.62985
H          3.37015        5.76859        1.99315
C          1.79216       -3.05343        7.85741
H          2.10890       -3.70665        7.04380
H          1.01915       -3.56488        8.42567
H          2.65135       -2.88812        8.50592
C          5.09150        5.94330        7.22669
C         -0.06569       -1.43857        7.35577
H         -0.76385       -2.12997        7.80543
C         -1.99547        0.08789        6.87242
H         -2.59705       -0.79120        6.64957
H         -2.24073        0.87269        6.16165
H         -2.26355        0.43008        7.87306
C          4.71014        7.07967        7.93533
H          5.46084        7.66531        8.44638
C          3.37784        7.45827        7.99326
C         -1.97835        5.95132        5.01104
H         -2.52384        6.87137        4.80132
H         -2.58341        5.33700        5.67281
H         -1.84284        5.40794        4.07740
C         -0.12497        4.52946        7.88948
H          0.05917        5.51249        8.33763
C          4.24925        1.78361        8.22040
H          4.68413        1.59970        9.20279
H          3.20084        1.49150        8.25006
H          4.30460        2.85381        8.01662
C          0.81922        3.51373        8.52207
H          0.62889        3.43084        9.59218
H          1.85646        3.81530        8.38404
H          0.68024        2.52979        8.07181
C          0.99517        2.86327        2.70978
H          0.69743        3.89121        2.43045
H          1.76139        2.57681        1.96530
C          5.10386        4.05173        2.99348
H          5.07683        3.80514        1.92226
H          5.46015        3.18510        3.55649
C          4.88068        6.42172        3.42191
H          4.85315        6.75482        4.45865
H          5.05335        7.28241        2.78033
C          5.93732        5.32115        3.23506
H          6.59170        5.52154        2.38899
H          6.55228        5.22137        4.12640
C          6.53757        5.54020        7.18943
H          6.88183        5.27905        8.18994
H          7.15707        6.36211        6.83103
H          6.68820        4.67937        6.54088
C          4.78231       -0.14713        4.49465
H          5.05846       -0.94505        5.19306
C         -0.61647        6.26302        5.62614
H         -0.75670        6.85158        6.54043
C          4.99146        0.99302        7.14997
H          4.89507       -0.07647        7.36396
C         -1.57655        4.12969        8.13194
H         -1.80820        3.20812        7.60087
H         -2.26158        4.90644        7.80063
H         -1.74648        3.96256        9.19557
C          3.65382       -0.62437        3.58923
H          3.27195        0.20725        2.99136
H          2.82649       -1.02472        4.16970
H          4.01007       -1.40265        2.91443
C          0.21717        7.05519        4.62720
H          0.37685        6.45815        3.72790
H          1.18584        7.32467        5.04375
H         -0.29946        7.97159        4.34124
C          2.95770        8.67094        8.77158
H          2.24405        9.26610        8.20401
H          3.81533        9.29241        9.01807
H          2.47543        8.37021        9.70225
C          6.00239        0.21343        3.64839
H          6.41570       -0.67830        3.17788
H          6.78476        0.67497        4.24751
H          5.71771        0.90967        2.85991
C         -0.11334       -0.07098        2.79397
H          0.63117       -0.46541        2.10893
H         -0.99774       -0.69464        2.70642
H          0.27253       -0.18525        3.80281
C          6.47299        1.35565        7.13791
H          6.60998        2.39289        6.83664
H          7.02963        0.71812        6.45452
H          6.89792        1.23374        8.13401
C         -1.13189        1.79653        0.58129
H         -0.37513        1.42108       -0.10151
H         -1.38342        2.80507        0.26563
H         -2.01911        1.18407        0.45150
C         -1.98562        2.35681        3.47939
H         -2.65674        1.53827        3.72029
H         -2.57086        3.11191        2.96313
H         -1.63545        2.79471        4.41280
N          2.55198        1.32050        5.62757
N          1.89664        4.76824        5.88793
