83
CSD_code = NETYOA | q = 0 | S = 0 | Stoichiometry = C27H51N3SiZr | MND = 10
Zr        16.71894        2.91315       10.90116
Si        18.59934        5.32434       10.84207
N         18.36265        3.93097       11.81323
N         17.02133        0.69164       11.33158
N         15.20438        3.26333       12.41392
C         17.23659        4.88047        9.59629
C         15.83886        5.03310        9.82039
C         15.15062        4.04359        9.08583
C         16.11292        3.23795        8.41921
C         17.39444        3.75521        8.72741
C         15.17240        6.19419       10.50273
C         13.66578        3.95569        8.86638
C         15.75432        2.13640        7.45694
C         18.70828        3.30818        8.14309
C         18.37630        7.01144       11.75697
C         20.28963        5.63679        9.95570
C         19.33229        3.32294       12.70128
C         20.20503        4.36140       13.42399
C         18.58013        2.49405       13.76257
C         20.25044        2.37400       11.90031
C         17.59127        0.97631       10.20967
C         18.13526       -0.06277        9.23555
C         16.75368       -0.64245       11.92982
C         15.89081       -0.36973       13.17214
C         18.04448       -1.33210       12.39567
C         15.94557       -1.54114       10.98225
C         14.59991        2.45860       11.60543
C         13.17760        1.95509       11.84001
C         14.76541        3.86935       13.69442
C         15.75844        5.02121       13.93737
C         14.89558        2.84240       14.82958
C         13.33933        4.44420       13.68031
H         14.70118        6.84639        9.76217
H         15.89809        6.78251       11.05376
H         14.39097        5.86147       11.18741
H         13.39679        4.39210        7.90017
H         13.12358        4.50078        9.63707
H         13.32714        2.91918        8.86841
H         15.13094        2.52434        6.64794
H         15.18914        1.34544        7.96021
H         16.64320        1.69409        7.01150
H         19.21744        4.15629        7.68454
H         18.55575        2.55624        7.37012
H         19.36512        2.89261        8.91201
H         19.30364        7.29055       12.24690
H         17.60899        6.97596       12.52276
H         18.12777        7.80991       11.06570
H         20.97500        6.14631       10.62601
H         20.16525        6.27214        9.08476
H         20.77552        4.72459        9.62835
H         19.57249        5.09031       13.92346
H         20.83158        4.88471       12.70926
H         20.84125        3.87780       14.16242
H         18.13751        3.15620       14.50465
H         19.26002        1.81459       14.27580
H         17.78993        1.92520       13.25872
H         19.63745        1.63823       11.37363
H         20.95097        1.85982       12.55621
H         20.81648        2.94800       11.17107
H         18.51463       -0.97078        9.70471
H         18.93766        0.37293        8.64003
H         17.32949       -0.33773        8.55178
H         15.00990        0.19782       12.88350
H         16.45152        0.20431       13.90604
H         15.57573       -1.30424       13.63268
H         18.64758       -0.63398       12.97270
H         18.64403       -1.69432       11.56574
H         17.79571       -2.18339       13.02684
H         15.12775       -0.96558       10.54919
H         15.52626       -2.37926       11.53602
H         16.55358       -1.94218       10.17795
H         12.95855        1.71516       12.88243
H         12.99475        1.06447       11.23629
H         12.47478        2.72242       11.51297
H         16.74186        4.73416       13.55476
H         15.82652        5.26103       14.99709
H         15.43567        5.91255       13.40444
H         15.92269        2.49431       14.90301
H         14.25423        1.98102       14.65935
H         14.60935        3.29877       15.77572
H         13.13959        4.94945       12.73731
H         13.23964        5.17183       14.48419
H         12.58491        3.67749       13.82951
