102
CSD_code = NIHQAX | q = 0 | S = 0 | Stoichiometry = C54H42ClFeP3Si | MND = 5
Fe         8.14970        9.74466        3.77633
Cl         6.29851       10.32904        2.83479
Si         9.99298        9.30129        4.92416
P          8.08974       11.46538        5.11086
P          8.16836        7.60210        3.37424
P          9.45642       10.50944        2.26723
C         10.07593       10.29417        6.54689
C          9.19750       11.37476        6.55380
C          9.09336       12.20839        7.66001
H          8.38001       13.02185        7.66768
C          9.90351       11.97899        8.75731
H          9.83187       12.62139        9.62336
C         10.79636       10.91782        8.75257
H         11.42424       10.74196        9.61456
C         10.87530       10.07771        7.65495
H         11.55824        9.24229        7.66718
C         10.28414        7.43550        5.11746
C          9.42336        6.67964        4.32932
C          9.54056        5.29576        4.26612
H          8.87211        4.72225        3.63678
C         10.51564        4.66306        5.01421
H         10.61038        3.58716        4.97779
C         11.37497        5.40912        5.80786
H         12.13932        4.90997        6.38647
C         11.26191        6.78767        5.85169
H         11.94528        7.36201        6.45794
C         11.51129        9.96159        3.95682
C         11.21054       10.57759        2.74295
C         12.20476       11.21483        2.00545
H         11.95330       11.74836        1.09792
C         13.51061       11.19358        2.46086
H         14.28700       11.68442        1.89108
C         13.82286       10.55361        3.65131
H         14.84523       10.54110        4.00168
C         12.82505        9.95502        4.40035
H         13.06537        9.48564        5.34243
C          7.87350       13.23706        4.78378
C          8.79925       14.19275        5.19069
H          9.68557       13.89010        5.73197
C          8.58120       15.52771        4.90313
H          9.29101       16.27109        5.23770
C          7.46116       15.91237        4.18488
H          7.29442       16.95697        3.96530
C          6.56282       14.95734        3.73575
H          5.70081       15.25472        3.15673
C          6.76588       13.62326        4.02985
H          6.07459       12.87000        3.67655
C          6.54907       11.03332        5.99156
C          5.63605       11.92144        6.54406
H          5.80112       12.98741        6.46930
C          4.50328       11.43318        7.17262
H          3.78914       12.12414        7.59727
C          4.27618       10.06948        7.25159
H          3.38431        9.69816        7.73460
C          5.18848        9.17769        6.70811
H          5.01260        8.11326        6.76315
C          6.32129        9.66095        6.08619
H          7.06070        8.96739        5.66553
C          6.60847        6.86473        3.98512
C          5.42910        7.20881        3.32481
H          5.46800        7.88242        2.47939
C          4.21397        6.72588        3.77221
H          3.30551        6.99573        3.25376
C          4.16042        5.90732        4.88915
H          3.21052        5.52991        5.23964
C          5.32521        5.58892        5.56764
H          5.28522        4.96606        6.45040
C          6.54562        6.07057        5.12618
H          7.44720        5.82873        5.67223
C          8.42293        6.71964        1.79350
C          9.73657        6.73306        1.32529
H         10.49320        7.25812        1.89840
C         10.06800        6.08056        0.15625
H         11.08940        6.08791       -0.19522
C          9.08851        5.41520       -0.56502
H          9.34556        4.90386       -1.48105
C          7.78265        5.40500       -0.10851
H          7.01895        4.88326       -0.66751
C          7.44538        6.05300        1.06778
H          6.42515        6.02478        1.42172
C          9.44378        9.71000        0.62174
C         10.57546        9.48177       -0.15265
H         11.55649        9.72747        0.22502
C         10.45168        8.91379       -1.40815
H         11.33610        8.74423       -2.00601
C          9.20669        8.56028       -1.89894
H          9.11745        8.12127       -2.88195
C          8.07907        8.75568       -1.11940
H          7.10729        8.46189       -1.48865
C          8.19679        9.31888        0.13666
H          7.32141        9.45193        0.75878
C          9.15055       12.23967        1.76558
C          9.87181       13.27780        2.34920
H         10.63375       13.05646        3.08536
C          9.62517       14.58735        1.98196
H         10.20610       15.38556        2.42111
C          8.63202       14.87678        1.06197
H          8.43915       15.90165        0.78006
C          7.88170       13.85085        0.51186
H          7.09426       14.07448       -0.19316
C          8.13933       12.53767        0.85705
H          7.55235       11.73977        0.42778
