80
CSD_code = NODROO | q = 0 | S = 0 | Stoichiometry = C33H41N4SiY | MND = 9
Y          2.22167        3.90662        2.26828
Si         0.98571        6.88371        3.46178
N          1.46621        5.99387        2.06861
N          4.53970        4.85248        2.05194
N         -0.16029        3.26357        1.53388
N          2.70536        2.21684        1.01822
C          2.22435        4.56793        4.72999
C          3.56155        4.14762        4.88622
C          3.60230        2.73355        4.77738
C          2.30045        2.26002        4.54791
C          1.41684        3.39328        4.48308
C          1.67019        5.93669        4.99453
H          2.44551        6.54234        5.46231
H          0.87023        5.85103        5.73261
C          4.72902        5.00893        5.27281
H          4.83948        5.03548        6.35997
H          4.60128        6.03321        4.92351
H          5.65890        4.61859        4.85825
C          4.83348        1.89785        4.96640
H          5.64502        2.22775        4.31412
H          4.62759        0.85080        4.75673
H          5.19027        1.97238        5.99563
C          1.88087        0.81452        4.54137
H          2.20947        0.32547        5.45994
H          2.30870        0.26222        3.70196
H          0.79768        0.72565        4.48764
C         -0.07092        3.35447        4.75769
H         -0.54258        2.46209        4.34512
H         -0.57404        4.22992        4.34823
H         -0.24181        3.34772        5.83888
C          1.74335        8.64940        3.51287
H          2.79299        8.63112        3.79289
H          1.22686        9.27690        4.23178
H          1.67385        9.13431        2.54447
C         -0.91308        7.09802        3.71598
H         -1.30253        7.93419        3.14339
H         -1.14488        7.28984        4.75937
H         -1.46932        6.21383        3.41443
C          1.31730        6.45692        0.78628
C          2.02496        5.83754       -0.26408
H          2.71515        5.02221       -0.02824
C          1.88824        6.24881       -1.57385
H          2.44969        5.74724       -2.35012
C          1.04586        7.29958       -1.90005
H          0.93834        7.62055       -2.92485
C          0.34804        7.93330       -0.88416
H         -0.31153        8.75768       -1.11881
C          0.47860        7.52719        0.42700
H         -0.08010        8.02951        1.20006
C          4.67995        6.17845        2.14777
H          3.76314        6.74990        2.23269
C          5.90923        6.81530        2.13998
H          5.95962        7.88985        2.22122
C          7.06066        6.05274        2.02662
H          8.03608        6.51610        2.01976
C          6.92412        4.67842        1.91797
H          7.78755        4.03889        1.82086
C          5.65369        4.12656        1.93410
H          5.52051        3.05623        1.83138
C         -1.11008        4.12345        1.16958
H         -0.81679        5.16347        1.10589
C         -2.40929        3.73994        0.87503
H         -3.13769        4.47994        0.58309
C         -2.74633        2.39930        0.96134
H         -3.74934        2.06447        0.74175
C         -1.76123        1.49727        1.33181
H         -1.97462        0.44243        1.40770
C         -0.48907        1.97234        1.60491
H          0.30980        1.29511        1.88465
C          2.35934        2.16877       -0.41498
H          1.96875        1.15000       -0.63003
H          1.55621        2.88080       -0.63836
C          3.57128        2.41728       -1.26856
H          3.49488        3.06618       -2.12664
C          4.69587        1.78060       -0.91620
H          5.60398        1.85232       -1.49843
C          4.72803        1.09360        0.34127
H          5.56646        0.46750        0.60325
C          3.80104        1.45696        1.27593
H          3.94379        1.17769        2.31803
