70
CSD_code = NURMAP | q = 0 | S = 0 | Stoichiometry = C25H39F3OSiTi | MND = 12
Ti         4.17678        2.54894        3.66604
Si         2.34592        5.37791        4.08991
C          5.99507        3.42501        3.36708
C          6.37346        4.67233        3.16843
C          3.37444        1.49212        5.55249
C          4.22570        0.38126        5.25345
C          5.56120        0.82259        5.32880
C          5.56383        2.18004        5.74321
C          4.21362        2.59107        5.92640
C          1.89944        1.44440        5.84815
H          1.73614        1.46788        6.92902
H          1.44137        0.53318        5.46793
H          1.39086        2.30392        5.40964
C          3.82385       -1.06472        5.28168
H          4.34209       -1.66194        4.53410
H          2.75347       -1.19564        5.15595
H          4.09257       -1.47297        6.25958
C          6.78582       -0.03753        5.24094
H          6.56419       -0.99707        4.78186
H          7.17512       -0.22541        6.24409
H          7.57193        0.45154        4.66854
C          6.75872        2.93520        6.24487
H          6.63195        4.00942        6.11414
H          7.66918        2.62479        5.73749
H          6.88638        2.73888        7.31284
C          3.81008        3.74886        6.78809
H          2.75845        3.98643        6.66324
H          4.39886        4.63291        6.55680
H          3.98333        3.48697        7.83640
C          2.65749        2.17134        1.91303
C          3.17755        0.90599        2.33863
C          4.55920        0.87198        1.99840
C          4.87991        2.09853        1.35905
C          3.70130        2.89196        1.29457
C          1.20015        2.52361        1.90884
H          1.06043        3.59963        1.97298
H          0.68354        2.05645        2.74645
H          0.73357        2.16824        0.98533
C          2.28070       -0.28250        2.54921
H          1.55353       -0.12398        3.34395
H          2.84852       -1.18281        2.76138
H          1.71907       -0.45642        1.62691
C          5.47244       -0.32008        1.98753
H          5.59353       -0.67572        0.96107
H          5.07305       -1.13939        2.57857
H          6.45956       -0.06345        2.36986
C          6.12396        2.36869        0.56399
H          5.95108        2.07955       -0.47647
H          6.96901        1.79345        0.93414
H          6.38854        3.42496        0.57810
C          3.60751        4.18164        0.54034
H          4.12328        4.08540       -0.41594
H          4.06783        4.99738        1.09718
H          2.57065        4.43896        0.34410
C          1.95404        6.39021        2.50709
H          2.86009        6.75453        2.03551
H          1.36299        7.25847        2.78191
H          1.38569        5.84278        1.76252
C          0.62586        4.93457        4.83956
H          0.12048        4.15005        4.28391
H         -0.01566        5.80924        4.81581
H          0.68897        4.61753        5.87659
C          3.16891        6.65992        5.25874
H          2.88842        6.52442        6.29811
H          2.86557        7.66188        4.97411
H          4.25082        6.62224        5.19288
F          7.01929        2.49162        3.30913
F          7.60374        5.17191        2.93814
F          5.48333        5.68039        3.15992
O          3.22423        4.04653        3.86740
