40
CSD_code = ODUPAG | q = 0 | S = 0 | Stoichiometry = C19H16CrO3Si | MND = 9
Cr         0.00112        8.75497        0.65340
Si         1.97895        9.87265        3.59590
O         -1.68413       11.18928        0.37030
O         -2.03280        8.33975        2.78106
O         -2.29229        7.71214       -0.92953
C          1.88092        9.07098        1.87867
C         -1.20811        8.48105        1.98117
C         -0.98696       10.26997        0.46388
C         -0.20126        6.94569        6.17353
C          0.52729        7.87659        5.39897
C          1.01930       11.51347        3.54542
H          0.04400       11.37390        3.08578
H          1.54798       12.27822        2.98344
H          0.86245       11.89823        4.54778
C          3.80963       10.10830        4.07769
H          3.88287       10.55763        5.06268
H          4.32968       10.75852        3.37951
H          4.34169        9.16193        4.10795
C          1.97274        9.83846        0.71034
H          2.20373       10.89624        0.78159
C         -1.36732        8.08816       -0.34619
C          1.65683        7.68409        1.73776
H          1.63717        7.06599        2.62902
C         -1.49799        6.60026        5.78791
H         -1.92656        7.05372        4.90702
C          1.14186        8.67116        4.72423
C          1.65325        7.87962       -0.67632
H          1.63343        7.40992       -1.65343
C          1.56232        7.08469        0.48145
H          1.46880        6.00887        0.39169
C         -2.21422        5.68752        6.53785
H         -3.21749        5.42125        6.24035
C          0.36313        6.36801        7.31136
H          1.36681        6.64036        7.60406
C         -0.36434        5.45647        8.05206
H          0.07297        5.00992        8.93330
C         -1.65151        5.11468        7.66801
H         -2.21607        4.40181        8.25083
C          1.88887        9.25000       -0.56525
H          2.04755        9.85091       -1.45323
