97
CSD_code = OMOBIC | q = 0 | S = 0 | Stoichiometry = C45H42BN6PRuSi | MND = 7
Ru         7.26376       11.14500       16.33525
H          8.63684       11.44415       16.91236
H          6.63657        9.77588       16.06056
Si         8.54455        9.07545       16.94458
P          8.06194       11.31334       14.15862
B          5.02040       13.21991       17.41923
H          4.20901       13.97485       17.83152
N          6.47179       11.34799       18.28327
N          5.51455       12.25853       18.50792
N          5.25926       11.47779       15.66643
N          4.48528       12.38432       16.26130
N          7.33789       13.25680       16.50651
N          6.26869       13.94736       16.90294
C          6.79907       10.81789       19.45439
H          7.55914       10.06793       19.54309
C          6.02288       11.38465       20.46516
H          6.05029       11.15742       21.51047
C          5.22225       12.29794       19.81787
H          4.47562       12.96620       20.19638
C          4.53529       10.89786       14.71605
H          4.93643       10.11890       14.09579
C          3.25722       11.45403       14.69052
H          2.44938       11.19864       14.03642
C          3.27006       12.39745       15.69498
H          2.50673       13.06507       16.03930
C          8.30482       14.12761       16.25144
H          9.28027       13.81043       15.93472
C          7.84432       15.42342       16.47395
H          8.38626       16.33796       16.35061
C          6.54141       15.25986       16.89124
H          5.80333       15.98030       17.18002
C          7.90584       13.02624       13.51165
C          6.62486       13.57037       13.43113
H          5.76874       12.95169       13.66584
C          6.43854       14.88235       13.04252
H          5.43995       15.29204       12.99018
C          7.53237       15.67153       12.72362
H          7.38933       16.69963       12.42556
C          8.80676       15.13577       12.78519
H          9.66172       15.74499       12.52979
C          8.99602       13.82204       13.17940
H          9.99645       13.41633       13.23198
C          7.27172       10.40487       12.77278
C          7.00128       10.97354       11.53133
H          7.23958       12.01079       11.34243
C          6.42938       10.21074       10.52776
H          6.22037       10.66214        9.56848
C          6.13086        8.87583       10.74521
H          5.68752        8.28586        9.95657
C          6.40227        8.30261       11.97682
H          6.17678        7.26190       12.15685
C          6.96332        9.06461       12.98490
H          7.16644        8.62827       13.95211
C          9.82536       10.99136       13.77325
C         10.25187       10.54061       12.52804
H          9.53429       10.34515       11.74504
C         11.59841       10.32843       12.28956
H         11.91893        9.97241       11.32108
C         12.53293       10.56539       13.28385
H         13.58179       10.39116       13.09401
C         12.11653       11.02053       14.52453
H         12.83680       11.19907       15.30947
C         10.77155       11.23143       14.76609
H         10.44142       11.55922       15.74162
C          8.81820        7.77081       15.55413
C          9.88432        7.85216       14.66338
H         10.61837        8.63179       14.79034
C         10.03087        6.94689       13.62768
H         10.86578        7.04077       12.94721
C          9.11426        5.92255       13.46531
H          9.22591        5.21330       12.65740
C          8.05886        5.80853       14.35423
H          7.34571        5.00282       14.24613
C          7.91479        6.72455       15.38120
H          7.08447        6.62756       16.06563
C         10.30326        9.24887       17.72005
C         11.26624        8.25757       17.54598
H         11.02824        7.38816       16.95166
C         12.52001        8.35931       18.12252
H         13.24921        7.57656       17.96595
C         12.84066        9.45708       18.90233
H         13.81949        9.53985       19.35325
C         11.89199       10.44447       19.10490
H         12.12679       11.30135       19.72138
C         10.64314       10.33497       18.52015
H          9.91406       11.11671       18.68664
C          7.62910        8.00536       18.26266
C          8.33954        7.26743       19.20388
H          9.41817        7.31912       19.21001
C          7.69357        6.47318       20.13539
H          8.27076        5.91138       20.85641
C          6.31188        6.39713       20.14585
H          5.80434        5.77884       20.87258
C          5.58518        7.12284       19.21717
H          4.50494        7.07168       19.21691
C          6.24031        7.91424       18.29197
H          5.65889        8.48418       17.57856
