83
CSD_code = OZIHUC | q = 0 | S = 0 | Stoichiometry = C27H43ClN10SiTi | MND = 5
Ti         8.79639        6.61536        4.70366
Cl         9.33174        4.43149        4.31271
N          9.41512        6.99536        2.89822
N          9.23962        6.65399        0.58032
N          7.33415        6.69204        1.82874
N          5.25968        6.73933        2.79969
N          7.11191        6.66605        4.17421
C         10.71466        7.46480        2.78080
C         11.04186        8.53320        1.93453
H         10.26355        8.97908        1.33135
C         12.33751        9.00588        1.87075
H         12.57299        9.82758        1.20904
C         13.33483        8.43804        2.64882
H         14.34821        8.80741        2.59016
C         13.02163        7.38634        3.49657
H         13.79540        6.92847        4.09704
C         11.73049        6.90025        3.56675
H         11.50477        6.04397        4.19909
C          8.64042        6.77192        1.82185
C         10.42128        5.82596        0.43888
H         11.24677        6.40106        0.00878
H         10.20024        4.97886       -0.21684
H         10.73217        5.42795        1.40345
C          8.37490        6.64213       -0.57664
H          7.86219        5.68219       -0.70190
H          8.98330        6.84442       -1.45867
H          7.62624        7.42201       -0.46402
C          6.61196        6.71052        2.99055
C          4.65638        6.80635        1.49750
H          4.10205        7.74351        1.37890
H          3.96163        5.97219        1.36013
H          5.44434        6.74961        0.75291
C          4.35843        6.69371        3.91899
H          4.94272        6.56583        4.82925
H          3.66381        5.85499        3.81092
H          3.77945        7.62052        3.98736
N          8.76872        6.19790        6.64537
N         10.65794        5.20305        7.63593
N         10.88902        7.20149        6.56318
N         11.32859        9.35754        6.01242
N          9.28275        8.42468        5.35341
C          7.79585        5.60888        7.43107
C          6.70826        4.96156        6.83172
H          6.69642        4.85871        5.74941
C          5.68290        4.46140        7.60920
H          4.85083        3.95982        7.13616
C          5.71349        4.59156        8.98986
H          4.90799        4.19879        9.59190
C          6.78417        5.23193        9.59076
H          6.81410        5.34231       10.66572
C          7.81782        5.73608        8.82559
H          8.64575        6.25376        9.29243
C         10.06620        6.20438        6.92989
C         10.06415        3.88699        7.73706
H          9.52555        3.76172        8.68146
H         10.85833        3.14240        7.67983
H          9.37725        3.71306        6.90699
C         12.06062        5.27018        7.96962
H         12.66168        4.69346        7.25970
H         12.20664        4.86394        8.97245
H         12.38049        6.30725        7.93719
C         10.45146        8.31150        5.95727
C         12.55721        9.21545        6.75813
H         12.35593        8.67665        7.68008
H         12.93292       10.21147        6.99379
H         13.31558        8.66991        6.18785
C         11.39317       10.34396        4.96106
H         10.56131       10.20671        4.27535
H         12.32883       10.22936        4.40458
H         11.35442       11.35020        5.38217
Si         8.09880        9.68225        5.46797
C          6.63554        8.93466        6.45034
H          6.40533        7.95343        6.03820
H          5.74332        9.55093        6.39684
H          6.88441        8.80178        7.50093
C          7.58374       10.14122        3.68194
H          8.31344       10.77193        3.18056
H          6.63664       10.67003        3.67351
H          7.46521        9.23144        3.09702
C          8.65950       11.24329        6.42992
H          9.40792       11.00240        7.17728
H          7.81138       11.68093        6.94503
H          9.06841       12.00638        5.77770
