90
CSD_code = PAHHUE | q = 0 | S = 0 | Stoichiometry = C35H49ClMoOP2Si | MND = 7
Mo         5.09097        1.68850        4.11650
Cl         3.09318        2.73191        5.09034
P          4.66139        0.07892        5.99208
P          5.11922        3.46507        2.37369
Si         7.85659       -0.40095        2.73073
O          3.98686       -0.07804        1.85889
C          7.37319        1.66386        6.17823
C          6.21766        2.48184        6.05606
H          5.53449        2.50583        6.89532
C          6.21347        3.53746        5.13658
H          5.46885        4.33040        5.22534
C          7.38735        3.82564        4.39406
C          8.52482        3.08280        4.59967
H          9.42302        3.31282        4.04525
C          8.51050        1.98851        5.47351
H          9.39224        1.37153        5.55773
C          7.29513        0.44894        6.99221
C          6.15020       -0.37180        6.97125
C          6.19080       -1.57261        7.67854
H          5.35273       -2.24973        7.64189
C          7.29387       -1.94106        8.42556
H          7.28788       -2.87494        8.96827
C          8.40198       -1.11195        8.47442
H          9.26379       -1.38638        9.06432
C          8.40035        0.06307        7.75155
H          9.26308        0.71243        7.77962
C          7.30178        4.90893        3.40987
C          6.22042        4.93715        2.51541
C          6.11307        6.01721        1.64258
H          5.28304        6.08273        0.95627
C          7.05097        7.03435        1.64339
H          6.93856        7.86745        0.96487
C          8.13563        6.97968        2.50294
H          8.87676        7.76504        2.49359
C          8.25577        5.92140        3.38266
H          9.08309        5.87889        4.07634
C          3.99287       -1.56453        5.41503
H          3.87306       -2.24165        6.26577
C          4.97431       -2.21052        4.44923
H          5.19838       -1.53778        3.62561
H          4.55715       -3.13290        4.04760
H          5.90462       -2.44515        4.95960
C          2.62349       -1.33952        4.77570
H          1.84769       -1.21462        5.52867
H          2.35485       -2.19015        4.15167
H          2.63574       -0.44816        4.14486
C          3.38977        0.44202        7.34936
H          2.48404        0.67561        6.77431
C          3.08526       -0.71650        8.29998
H          2.28919       -0.40576        8.97642
H          3.95594       -0.96047        8.90515
H          2.73819       -1.61038        7.79102
C          3.72532        1.66264        8.20723
H          4.70161        1.55615        8.68311
H          2.98128        1.75847        8.99824
H          3.68229        2.58084        7.62536
C          5.75482        2.77541        0.74729
H          5.41507        1.73291        0.75682
C          7.27887        2.77930        0.80740
H          7.67122        3.78033        0.63543
H          7.68577        2.11774        0.04546
H          7.61104        2.43126        1.78460
C          5.28664        3.43087       -0.54850
H          4.21087        3.35476       -0.68327
H          5.75959        2.91629       -1.38437
H          5.58559        4.47570       -0.59654
C          3.50432        4.25597        1.88884
H          3.65949        4.76080        0.92799
C          2.45793        3.16169        1.70095
H          2.81195        2.39116        1.01548
H          1.53654        3.58449        1.30197
H          2.22897        2.69083        2.65570
C          3.05420        5.29125        2.91626
H          2.86593        4.81821        3.87675
H          2.12858        5.76076        2.58536
H          3.80533        6.06924        3.05041
C          4.29987        0.57609        2.76201
C          6.54514        0.74552        3.40151
C          8.39939       -1.66774        4.06921
H          8.08005       -1.36201        5.06044
H          9.48084       -1.76251        4.09210
H          7.98946       -2.65369        3.87621
C          7.19703       -1.33205        1.19410
H          6.25668       -1.83192        1.40214
H          7.90542       -2.08334        0.85778
H          7.02390       -0.64733        0.36955
C          9.50259        0.43078        2.19900
H          9.41715        0.98059        1.26890
H         10.26491       -0.33050        2.05582
H          9.86742        1.11698        2.95540
