91
CSD_code = PALHOB | q = 0 | S = 0 | Stoichiometry = C35H50MoN2O2Si | MND = 6
Mo         4.39436        3.65922        2.38411
Si         2.83927        7.23578        2.17220
O          4.04780        3.39619        0.68709
O          4.27024        3.69333        4.12995
N          6.16742        4.48001        2.15037
H          0.82727        5.10750        2.47699
N          5.38215        1.24221        2.84086
H          6.39391        1.28147        2.95089
C          3.15697        3.28713       -0.27870
C          3.44163        3.57138       -1.63253
C          2.40336        3.46672       -2.54698
H          2.57769        3.69197       -3.58604
C          1.12861        3.07251       -2.17386
H          0.34789        3.00925       -2.91704
C          0.86524        2.73961       -0.86016
H         -0.11803        2.40559       -0.56110
C          1.86650        2.84651        0.09186
C          1.67005        2.36267        1.47388
C          1.30809        1.02840        1.64051
H          1.14613        0.41767        0.76237
C          1.14220        0.49097        2.90380
H          0.82715       -0.53545        3.02374
C          1.42440        1.26967        4.01321
H          1.35247        0.84868        5.00723
C          1.80116        2.60246        3.87403
C          1.86387        3.19615        2.59619
C          2.18455        3.32945        5.10200
C          1.32364        3.42949        6.18280
H          0.30386        3.08635        6.08238
C          1.77103        3.97514        7.36963
H          1.09966        4.07382        8.20946
C          3.09168        4.37396        7.49384
H          3.41250        4.76613        8.44462
C          3.99489        4.27852        6.44442
C          3.52038        3.78097        5.21033
C          4.84998        3.98248       -2.04408
C          4.99948        4.14488       -3.56022
H          4.35343        4.93346       -3.93798
H          4.77291        3.21651       -4.08013
H          6.02715        4.41897       -3.79069
C          5.85165        2.91357       -1.58120
H          5.89931        2.88645       -0.49236
H          6.84582        3.14640       -1.95831
H          5.56125        1.93221       -1.95500
C          5.18602        5.32042       -1.37494
H          5.08089        5.24341       -0.29268
H          4.51611        6.09701       -1.73638
H          6.20880        5.60968       -1.60997
C          1.82998        4.68247        2.45358
C          2.97077        5.35151        2.31862
C          0.99980        7.77664        2.14254
H          0.49020        7.50712        3.06268
H          0.46273        7.31772        1.31791
H          0.91347        8.85309        2.02734
C          3.60708        8.13073        3.68083
H          3.25351        7.69142        4.60877
H          3.32536        9.17961        3.68571
H          4.69031        8.08319        3.68375
C          3.59552        7.93970        0.56239
H          3.10677        7.51551       -0.30911
H          4.65664        7.73703        0.47814
H          3.46154        9.01674        0.52091
C          5.45082        4.70763        6.58674
C          5.81706        5.08729        8.02552
H          5.65121        4.25558        8.70698
H          5.24480        5.94706        8.36487
H          6.87130        5.35399        8.06761
C          6.38077        3.56432        6.15130
H          6.16081        2.65988        6.71809
H          7.41733        3.84030        6.33699
H          6.26915        3.36224        5.08466
C          5.68550        5.92474        5.68503
H          5.07891        6.76218        6.02165
H          5.41790        5.68848        4.65575
H          6.73230        6.22102        5.71874
C          6.44365        5.89585        2.11953
H          6.89807        6.19491        1.16319
H          7.14967        6.17873        2.91402
H          5.51991        6.44373        2.25617
C          7.42314        3.78085        1.99428
H          8.06489        3.89229        2.88428
H          7.98564        4.18214        1.13739
H          7.25788        2.71893        1.81056
C          4.83989        0.60086        4.03037
H          5.22849       -0.41992        4.15902
H          3.75465        0.54712        3.94647
H          5.09385        1.18795        4.91120
C          5.07588        0.46594        1.64742
H          5.42023       -0.57561        1.73154
H          5.54774        0.92269        0.77813
H          3.99511        0.45817        1.49629
