130
CSD_code = PAWPAF | q = 0 | S = 0 | Stoichiometry = C64H60MoP4Si | MND = 8
Mo         0.95473       17.41682       13.54224
P         -0.82480       18.95598       13.88036
P         -0.88245       15.94018       13.70531
P          2.01418       15.78196       12.20388
P          2.57392       18.76361       12.46762
Si         0.72881       16.77620       15.98852
C         -2.33085       18.09092       14.50414
C         -2.47777       16.87393       13.61442
C          3.67838       16.36538       11.57851
C          4.06147       17.72813       12.12629
C         -1.65403       19.81483       12.48005
C         -1.58277       19.31537       11.18522
C         -2.27165       19.92055       10.14965
C         -3.03772       21.04723       10.39088
C         -3.10968       21.56131       11.67517
C         -2.42983       20.94962       12.71213
C         -0.65707       20.35667       15.02305
C         -1.59706       20.71893       15.98233
C         -1.39484       21.84807       16.75544
C         -0.26310       22.62666       16.58088
C          0.67917       22.26901       15.63114
C          0.47778       21.14221       14.85858
C         -1.20786       14.71274       12.39862
C         -1.72282       15.11304       11.16758
C         -2.03925       14.17984       10.19930
C         -1.82527       12.83218       10.43505
C         -1.26398       12.42783       11.63400
C         -0.95563       13.35904       12.60877
C          1.35733       15.26653       10.57289
C          1.02681       16.30536        9.70662
C          0.58820       16.04696        8.42382
C          0.47770       14.73684        7.98554
C          0.79662       13.69820        8.84219
C          1.23067       13.95594       10.13142
C          2.47354       14.16900       12.91394
C          1.88377       13.78552       14.10876
C          2.20743       12.58160       14.70787
C          3.12836       11.74118       14.10734
C          3.71409       12.10731       12.90509
C          3.39118       13.31159       12.30795
C          2.21250       19.58958       10.88955
C          1.22694       20.57287       10.95073
C          0.82173       21.24077        9.81230
C          1.38709       20.91859        8.58823
C          2.36076       19.93697        8.51533
C          2.77798       19.27596        9.65848
C          3.45242       20.08441       13.36661
C          3.89017       19.77502       14.65287
C          4.56067       20.71535       15.41010
C          4.80706       21.97684       14.89058
C          4.38950       22.28541       13.60790
C          3.71837       21.34481       12.84436
C         -1.25093       14.98534       15.20091
C         -0.47462       15.32619       16.30155
C         -0.68252       14.65473       17.49790
C         -1.65877       13.67885       17.59381
C         -2.45535       13.37618       16.49824
C         -2.25634       14.02885       15.29607
C          2.29859       16.19532       16.93001
C          3.42651       15.66683       16.31740
C          4.51831       15.23337       17.04885
C          4.50812       15.32317       18.42908
C          3.39853       15.85657       19.06185
C          2.31385       16.28407       18.31817
C          0.12733       18.09691       17.23619
C          0.97158       19.16285       17.52698
C          0.65229       20.09001       18.49922
C         -0.53582       19.97442       19.20237
C         -1.39581       18.92888       18.91948
C         -1.06099       17.99989       17.94889
H          1.51698       18.47426       14.58307
H         -2.15035       17.79253       15.54325
H         -3.21521       18.73687       14.44702
H          2.33833       16.75808       14.01676
H         -2.64542       17.20324       12.58295
H         -3.30674       16.22414       13.92163
H          0.18119       17.47326       12.15970
H          4.43304       15.62495       11.86364
H          3.62005       16.38860       10.48453
H          4.76020       18.25900       11.46879
H          4.53986       17.61775       13.10734
H         -0.96653       18.45184       10.97880
H         -2.20325       19.51285        9.15094
H         -3.57272       21.52559        9.58335
H         -3.70125       22.44417       11.87199
H         -2.49836       21.36338       13.70849
H         -2.48361       20.12309       16.14010
H         -2.12862       22.12224       17.49973
H         -0.11502       23.50754       17.18846
H          1.57030       22.86437       15.49169
H          1.21466       20.84804       14.12226
H         -1.87835       16.16249       10.95823
H         -2.45683       14.50530        9.25725
H         -2.08749       12.10188        9.68358
H         -1.07370       11.37976       11.81795
H         -0.53096       13.02890       13.54656
H          1.12311       17.32771       10.05215
H          0.33909       16.86651        7.76409
H          0.14219       14.52706        6.98019
H          0.70817       12.67483        8.50661
H          1.45879       13.13127       10.79032
H          1.17177       14.45457       14.57241
H          1.74357       12.30754       15.64447
H          3.39143       10.80166       14.57094
H          4.42747       11.44881       12.42970
H          3.84781       13.57757       11.36334
H          0.77909       20.80321       11.91032
H          0.06058       22.00484        9.87751
H          1.06810       21.43136        7.69249
H          2.80099       19.68260        7.56140
H          3.54029       18.51457        9.57840
H          3.68470       18.79377       15.06371
H          4.88987       20.46586       16.40851
H          5.32510       22.71610       15.48404
H          4.58578       23.26483       13.19520
H          3.39751       21.60102       11.84440
H         -0.07313       14.89859       18.35561
H         -1.81083       13.15507       18.52724
H         -3.23008       12.62685       16.58245
H         -2.87298       13.79041       14.43817
H          3.46493       15.58933       15.23957
H          5.37936       14.82292       16.53847
H          5.35742       14.98513       19.00621
H          3.37907       15.94022       20.13997
H          1.46434       16.71084       18.83039
H          1.90366       19.25481       16.98768
H          1.33142       20.90300       18.71535
H         -0.78665       20.69309       19.96993
H         -2.32474       18.82829       19.46491
H         -1.73191       17.17039       17.76190
