94
CSD_code = PEWMUA | q = 0 | S = 0 | Stoichiometry = C38H52HfNPSi | MND = 6
Hf         4.38591       13.77625        3.01698
Si         0.51871       12.14246        3.12080
C          1.00283       10.77274        1.87165
H          1.24300       11.17519        0.89301
H          0.16768       10.09175        1.74122
H          1.85012       10.18507        2.21187
C         -0.28922       11.19742        4.57651
H         -0.33216       11.77746        5.49189
H          0.24766       10.28010        4.79292
H         -1.30700       10.92271        4.31594
C         -0.89049       13.15750        2.31012
H         -1.72712       12.51324        2.05993
H         -0.56026       13.63666        1.39521
H         -1.26293       13.94101        2.96355
C          1.96143       13.29311        3.54491
C          1.85039       14.61311        2.89139
C          1.92365       14.70223        1.48962
H          2.02040       13.79325        0.90770
C          1.78341       15.91124        0.83219
H          1.83185       15.90940       -0.24483
C          1.58448       17.10068        1.52619
C          1.45255       18.45330        0.84587
C          1.58905       18.36131       -0.67617
H          0.80413       17.74129       -1.10312
H          2.55785       17.95474       -0.95670
H          1.50331       19.35623       -1.10885
C          2.55667       19.38412        1.36785
H          2.48376       20.35886        0.88972
H          3.53623       18.96474        1.14751
H          2.48081       19.52576        2.44253
C          0.07466       19.04827        1.16944
H         -0.71277       18.38134        0.82418
H         -0.04521       20.00983        0.67444
H         -0.05048       19.19809        2.23831
C          1.49935       17.01418        2.91391
H          1.31899       17.90245        3.50174
C          1.62146       15.80918        3.57591
H          1.49272       15.77705        4.65021
P          2.45000       13.33285        5.23655
C          2.63464       11.55099        5.63360
C          3.40195       10.81176        4.73797
H          3.82418       11.30881        3.85989
C          3.62630        9.46460        4.95593
H          4.21682        8.89434        4.25386
C          3.09522        8.84740        6.07770
H          3.26888        7.79570        6.25031
C          2.34397        9.58196        6.98005
H          1.93263        9.10338        7.85695
C          2.11521       10.92956        6.76145
H          1.52164       11.49687        7.46502
C          1.34606       13.95369        6.57171
C          0.04281       14.34356        6.28427
H         -0.33378       14.23092        5.27692
C         -0.76353       14.86730        7.27858
H         -1.77657       15.16404        7.04880
C         -0.27078       15.01451        8.56522
H         -0.89924       15.42724        9.34056
C          1.02951       14.63478        8.85568
H          1.41775       14.75155        9.85693
C          1.83684       14.10476        7.86514
H          2.85201       13.81426        8.09195
N          3.84799       14.13625        5.26318
C          4.56154       14.62286        6.37976
C          5.31077       13.78348        7.22229
C          5.36267       12.29899        7.02168
H          4.51632       11.80922        7.50658
H          6.27482       11.89514        7.45641
H          5.33752       12.04959        5.96272
C          6.02480       14.32678        8.27874
H          6.58710       13.66208        8.92086
C          6.04361       15.68866        8.53444
C          6.83081       16.24084        9.68466
H          6.60071       17.29152        9.84342
H          7.89934       16.14899        9.48883
H          6.61217       15.69149       10.59920
C          5.33523       16.51234        7.67651
H          5.34613       17.58172        7.83785
C          4.60735       16.00761        6.61072
C          3.86862       16.96262        5.72409
H          2.81556       17.00034        6.00704
H          3.93550       16.64704        4.68350
H          4.27965       17.96508        5.82066
C          6.44888       13.13493        3.66097
H          7.16192       13.36460        2.85913
H          6.55577       12.06478        3.87733
H          6.78227       13.68436        4.54910
C          4.39416       12.38243        1.23877
H          5.26872       11.71831        1.25128
H          4.48433       12.96369        0.31161
H          3.52255       11.73307        1.11026
C          5.02977       15.78524        2.24214
H          5.40799       15.68384        1.21542
H          5.86208       16.18822        2.83556
H          4.25733       16.56123        2.21023
