92
CSD_code = PITCEC | q = 0 | S = 0 | Stoichiometry = C44H45OSiY | MND = 12
C         18.91577        4.88236       23.52222
H         19.25501        5.72658       24.12488
H         19.18345        3.96658       24.04571
H         17.82704        4.94175       23.45107
C         19.55813        4.92328       22.16830
C         19.38795        6.00893       21.23513
H         19.19734        7.01690       21.60431
C         20.31438        5.73514       20.14529
C         20.91956        4.48681       20.39582
C         20.44373        4.00687       21.64101
H         20.76005        3.09649       22.11960
C         20.75792        6.57092       19.07184
C         20.23540        7.86024       18.87371
H         19.43026        8.20991       19.51263
C         20.74191        8.68943       17.90353
H         20.33801        9.68239       17.76734
C         21.78788        8.24521       17.09865
H         22.19942        8.89820       16.34292
C         22.29532        6.97635       17.25956
H         23.10628        6.66862       16.61809
C         21.79884        6.09768       18.23219
C         22.32055        4.75339       18.40652
C         23.25853        4.19773       17.52492
H         23.59144        4.75831       16.66497
C         23.76852        2.93397       17.71158
H         24.48822        2.53553       17.01080
C         23.35753        2.16551       18.79753
H         23.76315        1.17475       18.94347
C         22.42403        2.66966       19.66850
H         22.08138        2.07129       20.49924
C         21.88691        3.95227       19.49320
C         18.83057        6.40370       16.07139
H         18.39451        6.34072       15.07205
H         19.90895        6.48613       15.96488
H         18.45658        7.31323       16.54100
C         18.47021        5.17954       16.85369
C         17.17542        4.93217       17.42242
H         16.28918        5.45297       17.06389
C         17.17545        3.53486       17.82462
C         18.47655        3.02396       17.59224
C         19.25358        4.04606       17.00302
H         20.27315        3.95259       16.67574
C         18.77828        1.65663       17.87114
C         20.08124        1.15707       17.74200
H         20.86464        1.82914       17.42962
C         20.36750       -0.15637       18.01780
H         21.37768       -0.52565       17.91958
C         19.34777       -1.01069       18.42882
H         19.56747       -2.04436       18.65443
C         18.05885       -0.54500       18.54526
H         17.29670       -1.23876       18.86583
C         17.72752        0.78910       18.26774
C         16.36824        1.29039       18.38588
C         15.28150        0.45292       18.67495
H         15.43232       -0.61105       18.77656
C         14.00292        0.94082       18.81957
H         13.18960        0.26497       19.04053
C         13.75402        2.30396       18.67684
H         12.74978        2.68560       18.79552
C         14.78929        3.15417       18.37260
H         14.59537        4.21279       18.24169
C         16.10111        2.67411       18.21123
C         15.67584        6.46396       20.65506
H         14.77541        5.97055       20.26815
H         15.63819        6.34094       21.74473
C         16.78776        9.28450       21.37591
H         16.61604        9.07165       22.42644
H         16.67200       10.35479       21.23813
H         17.82311        9.04012       21.15533
C         16.08178        8.57310       18.43313
H         17.09267        8.20658       18.24719
H         16.05988        9.62372       18.16089
H         15.40796        8.05280       17.75795
C         13.82980        9.07746       20.50064
H         13.09353        8.57850       19.87837
H         13.81748       10.13126       20.24057
H         13.49969        8.99044       21.53096
C         17.79044        2.03683       21.45159
H         18.47234        2.28354       22.27284
H         18.36957        1.82915       20.54922
C         16.85765        0.90400       21.85493
H         17.36434        0.14622       22.44681
H         16.42154        0.44130       20.97073
C         15.78930        1.66403       22.63451
H         16.13660        1.87582       23.64655
H         14.84251        1.13300       22.68894
C         15.67164        2.95366       21.82592
H         14.91514        2.85547       21.03816
H         15.43068        3.82097       22.44900
O         16.94782        3.17470       21.19624
Si        15.56891        8.31405       20.26290
Y         17.54275        5.36640       19.81085
