90
CSD_code = POBMUP | q = 1 | S = 0 | Stoichiometry = C28H56IrO2P2Si(1+) | MND = 5
Ir         5.34626        8.06451        3.83537
H          4.76124        6.25927        3.80299
H          6.05850        7.93730        2.50398
P          3.52305        9.22404        2.85326
P          7.35174        7.72155        5.00705
Si         4.10958        4.77571        3.66478
O          3.81920       10.75274        3.32129
C          5.04010       11.02260        3.89879
C          5.90662        9.97237        4.17575
C          7.10283       10.26208        4.82323
O          7.94527        9.22363        5.16259
C          5.36602       12.33103        4.22351
H          4.67280       13.12316        3.99150
C          6.57736       12.59254        4.84025
H          6.84043       13.60765        5.08888
C          7.44820       11.56296        5.15503
H          8.38417       11.75349        5.65438
C          1.83810        9.00272        3.67079
C          2.19881        8.63500        5.11472
H          2.78440        9.43119        5.57773
H          2.76056        7.69986        5.14717
H          1.29819        8.49826        5.71164
C          1.08545        7.85079        3.01497
H          0.24202        7.55503        3.63766
H          1.73612        6.98695        2.88139
H          0.69082        8.14264        2.04512
C          0.99034       10.27106        3.68530
H          0.61380       10.52006        2.69928
H          1.55775       11.11725        4.06459
H          0.13342       10.11779        4.33992
C          3.43037        9.48606        0.98822
C          3.30853        8.13590        0.29245
H          2.35619        7.65817        0.50427
H          4.11480        7.47900        0.61075
H          3.38105        8.27033       -0.78485
C          2.29435       10.42104        0.58865
H          2.30974       11.32500        1.19348
H          1.32471        9.93890        0.68179
H          2.41842       10.71166       -0.45315
C          4.76640       10.12911        0.60752
H          4.84736       10.19253       -0.47523
H          5.60499        9.54050        0.98032
H          4.84552       11.13571        1.01088
C          7.00312        7.31261        6.81873
C          5.69524        8.06632        7.09110
H          4.91936        7.78129        6.37138
H          5.84860        9.14453        7.03508
H          5.31873        7.83356        8.08663
C          8.07339        7.81741        7.78062
H          7.68221        7.79398        8.79685
H          8.35365        8.84321        7.55178
H          8.96457        7.19912        7.75437
C          6.77703        5.81547        6.98464
H          7.70407        5.26216        6.85612
H          6.04969        5.45334        6.25974
H          6.40015        5.60426        7.98467
C          8.86610        6.88642        4.27941
C          9.24193        7.73366        3.06242
H          9.63139        8.70118        3.36785
H          8.37388        7.89621        2.42205
H         10.00761        7.22515        2.48115
C         10.03685        6.83595        5.25350
H         10.93718        6.53800        4.71896
H          9.86751        6.11045        6.04520
H         10.21374        7.81553        5.69139
C          8.46452        5.49080        3.81468
H          7.62942        5.55839        3.11859
H          8.17709        4.85813        4.64983
H          9.30096        5.01675        3.30502
C          2.60559        4.67905        4.83496
H          1.87574        5.45554        4.60515
H          2.09529        3.73225        4.65149
C          2.95796        4.75566        6.31936
H          3.62875        3.94872        6.60209
H          2.06023        4.67358        6.92808
H          3.44090        5.69932        6.56519
C          3.64261        4.64665        1.82567
H          3.11796        3.70796        1.64520
H          2.94793        5.43816        1.54497
C          4.86373        4.71314        0.91044
H          5.44856        5.61026        1.10977
H          4.55953        4.72638       -0.13321
H          5.50576        3.85015        1.06206
C          5.40732        3.45570        4.11965
H          6.29040        3.56354        3.49023
H          5.74730        3.56910        5.14946
C          4.86027        2.03653        3.95014
H          4.00429        1.86602        4.59814
H          5.62493        1.30628        4.20473
H          4.55304        1.85715        2.92337
