97
CSD_code = POTLAM | q = 0 | S = 0 | Stoichiometry = C36H54CoN2P3Si | MND = 5
Co         3.94792       11.56521        1.75288
N          4.02106       11.58949        0.10553
N          4.06698       11.60515       -1.01866
P          5.91752       12.74925        2.19609
P          1.91396       12.68881        2.02087
P          3.97077        9.24479        2.05466
Si         3.85309       11.52942        3.97234
C          5.58745       11.80268        4.73091
C          6.56055       12.25569        3.83563
C          7.88760       12.33569        4.23788
H          8.66294       12.64059        3.54997
C          8.23906       11.99140        5.53291
H          9.27374       12.05041        5.84046
C          7.27301       11.56731        6.42922
H          7.55307       11.30032        7.43847
C          5.95407       11.46306        6.02009
H          5.20534       11.09536        6.70672
C          7.36095       12.49557        1.03093
H          8.26387       12.91235        1.48926
C          7.56382       11.00187        0.81218
H          6.63737       10.55296        0.45377
H          7.85457       10.51100        1.73865
H          8.34057       10.82617        0.06891
C          7.10591       13.19776       -0.30069
H          7.94172       13.02162       -0.97727
H          6.99309       14.27234       -0.17581
H          6.20655       12.81001       -0.77294
C          5.97760       14.61792        2.41584
H          5.56798       15.02621        1.48377
C          7.35983       15.21873        2.65317
H          7.25654       16.29635        2.77931
H          8.03804       15.04851        1.82169
H          7.80218       14.81934        3.56290
C          5.05485       15.01273        3.56210
H          5.43514       14.63526        4.51020
H          4.05961       14.60450        3.41291
H          4.97739       16.09723        3.63258
C          2.69244       12.90217        4.62519
C          1.88741       13.50764        3.65620
C          1.12190       14.61813        3.98787
H          0.52606       15.12860        3.24509
C          1.13798       15.10646        5.28416
H          0.54419       15.97373        5.53689
C          1.91493       14.49287        6.25181
H          1.92367       14.87845        7.26154
C          2.69787       13.40151        5.91453
H          3.33470       12.94574        6.65884
C          1.51430       14.05713        0.80709
H          0.66767       14.63509        1.19201
C          2.72251       14.97618        0.68193
H          3.59998       14.39381        0.40050
H          2.92492       15.48004        1.62479
H          2.55124       15.73140       -0.08421
C          1.14550       13.47648       -0.55599
H          0.93466       14.28406       -1.25653
H          0.26551       12.83972       -0.49946
H          1.96827       12.89100       -0.95901
C          0.25272       11.80860        2.11001
H          0.18405       11.23786        1.17571
C          0.27490       10.82708        3.27518
H          1.13879       10.17202        3.21011
H         -0.62581       10.21409        3.27417
H          0.32567       11.35793        4.22472
C         -0.97430       12.70713        2.23162
H         -1.86337       12.07935        2.28866
H         -1.09357       13.36946        1.37873
H         -0.92859       13.30076        3.14175
C          3.19362        9.84669        4.59776
C          3.14998        8.83294        3.63662
C          2.54748        7.61845        3.93899
H          2.46296        6.83637        3.19838
C          2.01550        7.40585        5.20030
H          1.54401        6.46059        5.43008
C          2.08034        8.39952        6.16203
H          1.66378        8.22791        7.14454
C          2.65777        9.61941        5.85195
H          2.67455       10.40943        6.58871
C          3.08369        8.19498        0.78319
H          2.97753        7.17846        1.17621
C          1.69709        8.77706        0.54138
H          1.78350        9.82330        0.24788
H          1.08898        8.71531        1.44150
H          1.18937        8.23708       -0.25694
C          3.87424        8.14659       -0.52210
H          3.33538        7.55059       -1.25818
H          4.85767        7.70329       -0.38292
H          4.00216        9.14606       -0.93058
C          5.55190        8.24864        2.27973
H          6.14932        8.46068        1.38443
C          5.37901        6.73857        2.41240
H          6.36010        6.28458        2.55106
H          4.93077        6.28988        1.53031
H          4.77506        6.49532        3.28353
C          6.30141        8.77723        3.49630
H          5.74459        8.57397        4.40991
H          6.44532        9.85113        3.42252
H          7.27821        8.30163        3.57854
