95
CSD_code = PSICRF | q = 0 | S = 0 | Stoichiometry = C48H39O4P2ReSi | MND = 6
Re         5.77370        1.84164        1.29221
P          3.85062        3.11110        0.54011
P          6.78546        3.16462       -0.53686
Si         4.76254       -1.12897       -0.80408
O          5.59334        1.30390       -1.55076
O          4.00365        0.36441        3.35965
O          6.67578        4.10701        3.24856
O          8.26335        0.05253        1.72030
C          5.35410        0.69776       -0.50364
C          4.69476        0.84933        2.57720
C          6.28778        3.26337        2.57559
C          7.33617        0.72169        1.57820
C          4.44431        4.57822       -0.40781
C          5.50397        4.16099       -1.42289
C          2.72360        3.91503        1.72462
C          1.59324        4.58652        1.26646
C          0.75261        5.21511        2.16441
C          1.02869        5.17367        3.52258
C          2.14481        4.49650        3.98264
C          2.99054        3.86668        3.08637
C          2.61841        2.29505       -0.51933
C          2.02653        1.16504        0.04111
C          0.99775        0.52074       -0.61720
C          0.56214        0.98935       -1.84577
C          1.16916        2.09277       -2.41912
C          2.19524        2.74913       -1.76161
C          7.87612        4.46842        0.17192
C          8.96958        3.95052        0.86485
C          9.88892        4.78463        1.46587
C          9.72254        6.15886        1.38881
C          8.63766        6.68292        0.71011
C          7.71669        5.84496        0.10253
C          7.96209        2.58993       -1.79402
C          8.32924        3.42464       -2.84379
C          9.27016        3.00111       -3.76344
C          9.86366        1.75585       -3.63105
C          9.51028        0.92954       -2.57798
C          8.55801        1.34238       -1.66444
C          4.31578       -1.84797        0.88175
C          5.33373       -2.06787        1.80893
C          5.05680       -2.54597        3.07649
C          3.74867       -2.80073        3.45004
C          2.72342       -2.57821        2.54647
C          3.00756       -2.10715        1.27806
C          6.27834       -1.99088       -1.55838
C          6.75473       -3.20771       -1.07821
C          7.83672       -3.83170       -1.67225
C          8.45711       -3.25413       -2.76732
C          7.98969       -2.04854       -3.26261
C          6.91316       -1.42407       -2.66042
C          3.42173       -1.21640       -2.13599
C          2.53813       -2.29000       -2.19555
C          1.60725       -2.39216       -3.21269
C          1.55541       -1.42803       -4.20526
C          2.44036       -0.36457       -4.17179
C          3.36072       -0.26158       -3.14512
H          4.88794        5.23879        0.35067
H          3.60374        5.10923       -0.86781
H          5.07733        3.52416       -2.20208
H          5.96400        5.03378       -1.89502
H          1.36703        4.60430        0.20860
H         -0.12327        5.73628        1.80618
H          0.36790        5.66504        4.22121
H          2.35754        4.45510        5.04040
H          3.86043        3.32806        3.44070
H          2.38199        0.80712        1.00065
H          0.52769       -0.34340       -0.17261
H         -0.24313        0.48842       -2.36129
H          0.83845        2.45078       -3.38328
H          2.65428        3.61073       -2.22541
H          9.07926        2.87282        0.93233
H         10.72982        4.36781        2.00032
H         10.43398        6.81886        1.86266
H          8.50083        7.75365        0.65404
H          6.87708        6.28756       -0.41532
H          7.88844        4.40716       -2.93914
H          9.54832        3.64863       -4.58280
H         10.60434        1.43330       -4.34814
H          9.97170       -0.04018       -2.46521
H          8.26567        0.68971       -0.85321
H          6.35777       -1.86984        1.52801
H          5.86240       -2.70992        3.77765
H          3.52762       -3.16637        4.44230
H          1.69895       -2.76951        2.83448
H          2.20051       -1.93351        0.58154
H          6.26949       -3.67000       -0.23084
H          8.19541       -4.77406       -1.28299
H          9.30011       -3.74349       -3.23432
H          8.46342       -1.59391       -4.12152
H          6.56337       -0.47776       -3.04665
H          2.58957       -3.06078       -1.44061
H          0.92627       -3.23137       -3.23892
H          0.83384       -1.51061       -5.00575
H          2.41450        0.38445       -4.95103
H          4.04449        0.57377       -3.12525
