68
CSD_code = PUBSIO | q = 0 | S = 0 | Stoichiometry = C28H38MoSi | MND = 12
Mo         9.44812        9.57077       23.11142
H          8.66324        8.74216       24.18545
Si        10.04955       10.96713       25.12969
H         10.80831       12.12625       24.56422
C          8.59486       10.30125       21.15905
H          8.90405       10.05612       20.15054
C          8.97941       11.46820       21.86902
H          9.66981       12.22228       21.52089
C          8.13730       11.58942       22.98642
H          8.06315       12.44712       23.63888
C          7.27085       10.46926       23.00653
H          6.42601       10.35413       23.67371
C          7.53258        9.67616       21.86266
H          6.91312        8.86950       21.49892
C         11.30731        9.33923       21.68852
H         11.60842       10.00176       20.88891
C         11.75694        9.40300       23.01167
H         12.51240       10.07388       23.39299
C         11.20513        8.27611       23.70499
H         11.57828        7.87900       24.64267
C         10.46544        7.50021       22.75287
H         10.07024        6.50891       22.92229
C         10.52504        8.17083       21.52787
H         10.13027        7.80210       20.59079
C          8.77593       11.84936       26.32368
H          9.22344       11.76171       27.31300
C          8.56309       13.27299       25.95013
C          7.25987       13.46153       25.64206
C          6.53783       12.21948       25.85817
C          7.40310       11.27720       26.29534
C          9.65634       14.28743       25.96438
H         10.00688       14.51437       24.95575
H         10.49648       13.91283       26.54107
H          9.31034       15.21796       26.41308
C          6.59938       14.71731       25.17486
H          5.82301       15.02582       25.87537
H          6.12586       14.56193       24.20405
H          7.32237       15.52366       25.08055
C          5.06568       12.09989       25.63262
H          4.52223       12.79033       26.27840
H          4.71763       11.09054       25.83741
H          4.81692       12.34920       24.59980
C          7.10921        9.88989       26.75174
H          7.74827        9.63932       27.59435
H          7.30204        9.16625       25.95945
H          6.07056        9.79262       27.06096
C         11.38967       10.27984       26.40291
H         12.14825        9.74438       25.84190
C         11.91655       11.44299       27.15611
C         11.40396       11.41703       28.40901
C         10.63646       10.19503       28.57988
C         10.68606        9.47765       27.43248
C         12.91321       12.39130       26.58095
H         12.66157       12.65268       25.55532
H         13.90271       11.92812       26.57251
H         12.97951       13.30545       27.16678
C         11.58432       12.40923       29.50996
H         12.11661       11.95856       30.34817
H         10.61539       12.75007       29.87622
H         12.14851       13.27509       29.17297
C          9.96950        9.84909       29.87061
H          9.24408       10.61714       30.14227
H         10.70343        9.78716       30.67452
H          9.45195        8.89529       29.80653
C         10.17377        8.10154       27.17384
H         11.00931        7.40178       27.09270
H          9.60784        8.06221       26.24502
H          9.53616        7.75867       27.98484
