45
CSD_code = PUHBID | q = 0 | S = 0 | Stoichiometry = C14H25Cl2HfNOSi | MND = 9
Hf         2.08311        0.34670        7.87185
Cl         0.29516       -1.15095        7.93278
Cl         2.26205        0.75242        5.58498
Si         3.41693        1.80605       10.17397
O          0.08217        1.73865        7.44196
N          2.26082        2.07377        8.91760
C          3.90763        0.15037        9.38392
C          3.18216       -1.06924        9.55008
C          3.33203       -1.85668        8.38171
C          4.11051       -1.11716        7.44825
C          4.44735        0.12188        8.05473
C          2.47555       -1.52363       10.79681
H          1.39432       -1.37157       10.72065
H          2.84406       -0.97861       11.66112
H          2.64841       -2.58667       10.96205
C          2.87505       -3.28013        8.23542
H          1.89228       -3.42109        8.68226
H          3.57674       -3.95527        8.73042
H          2.81425       -3.56751        7.18791
C          4.64051       -1.62652        6.13605
H          4.65934       -0.83895        5.38346
H          4.02392       -2.43884        5.75641
H          5.65714       -2.00564        6.25986
C          5.29288        1.20072        7.43517
H          5.82607        0.81943        6.56628
H          6.02476        1.56513        8.15384
H          4.67634        2.04738        7.11525
C          2.64194        1.72266       11.92197
H          2.42153        2.72938       12.26260
H          3.31847        1.28043       12.64476
H          1.71314        1.16170       11.93698
C          4.80706        3.11580       10.28220
H          5.72401        2.68832       10.67263
H          4.51119        3.91446       10.95414
H          5.02939        3.56231        9.31962
C          1.31590        3.16424        8.86233
H          1.81767        4.13940        8.93032
H          0.58430        3.10352        9.68580
C          0.55928        3.07723        7.53395
H         -0.28443        3.77925        7.51104
H          1.23727        3.28578        6.69095
C         -0.78525        1.54250        6.33228
H         -1.67398        2.17458        6.43304
H         -1.07863        0.49297        6.34801
H         -0.27689        1.76885        5.38991
