47
CSD_code = PUXRIK | q = 0 | S = 0 | Stoichiometry = C15H26Cl2FeN2Si | MND = 4
Fe         5.58632        6.23260        0.27545
Cl         6.62657        7.32981        1.61525
Cl         5.03824        7.24174       -1.45390
Si         3.08273        4.39455        0.47510
N          7.08575        5.35032       -0.54957
N          4.75829        4.65078       -0.04270
C          8.24599        5.88399       -0.93229
H          8.42642        6.90068       -0.61241
C          9.18550        5.19292       -1.66309
H         10.11963        5.66310       -1.92196
C          8.91533        3.87277       -2.04548
H          9.64260        3.31227       -2.61253
C          7.71027        3.31768       -1.70315
H          7.43760        2.31799       -2.00238
C          6.78700        4.07761       -0.96097
C          5.48920        3.69123       -0.58569
H          5.11453        2.68850       -0.72420
C          1.94792        4.27216       -1.07738
H          0.91841        4.12557       -0.73228
C          2.30845        3.08185       -1.96575
H          1.62738        3.02802       -2.81347
H          2.24350        2.14282       -1.42153
H          3.31823        3.19456       -2.35311
C          1.98707        5.55088       -1.91387
H          1.31959        5.46084       -2.76956
H          2.99206        5.73860       -2.27943
H          1.68051        6.41654       -1.33464
C          2.74385        5.99020        1.49006
H          3.16783        6.82341        0.90423
C          1.25577        6.26931        1.68412
H          1.11064        7.20984        2.21365
H          0.79240        5.47812        2.26899
H          0.73769        6.33337        0.73201
C          3.44225        5.99274        2.85090
H          3.35994        6.97322        3.31783
H          4.50176        5.75224        2.75098
H          2.98209        5.26728        3.51798
C          3.04555        2.72707        1.44554
H          3.15393        1.92780        0.70441
C          4.19678        2.56914        2.43867
H          4.21457        1.55457        2.83490
H          4.08603        3.25245        3.27494
H          5.15399        2.76660        1.96119
C          1.70809        2.50700        2.14899
H          1.67718        1.52029        2.60867
H          0.88282        2.58178        1.44590
H          1.55952        3.24559        2.93218
