44
CSD_code = QAGRUM | q = 0 | S = 0 | Stoichiometry = C14H23Cl2N3SiTi | MND = 5
Ti         2.46922        1.48838        1.24964
Cl         0.55201        0.79201        1.96503
Cl         3.49463       -0.09574        0.10538
Si         4.23956       -0.30017        3.63267
N          3.57648        1.12241        2.88286
N          3.25162        3.13321        2.07694
N          2.03290        2.46043       -0.22833
C          4.11140        2.29574        2.64762
C          5.54041        2.60665        2.89971
C          5.95303        3.25705        4.05583
C          7.30045        3.49687        4.26608
C          8.23433        3.09565        3.32551
C          7.82343        2.45063        2.16986
C          6.47935        2.20352        1.95456
C          2.80542       -1.54260        3.45854
C          5.82030       -0.96910        2.78526
C          4.62862        0.10911        5.45934
C          3.70154        4.35259        1.44945
C          3.85840        4.11131       -0.05801
C          2.52422        3.72966       -0.70491
C          1.02157        1.90916       -1.10345
H          5.21791        3.56739        4.78401
H          7.62119        3.99861        5.16689
H          9.28398        3.28486        3.49338
H          8.55153        2.13635        1.43715
H          6.14276        1.68787        1.06170
H          2.57500       -1.71250        2.40703
H          3.04742       -2.50133        3.90511
H          1.90142       -1.17080        3.93533
H          5.68719       -1.03044        1.70813
H          6.04619       -1.96771        3.14542
H          6.68681       -0.34465        2.98515
H          5.48722        0.76851        5.54468
H          4.85451       -0.79866        6.00718
H          3.78785        0.59076        5.94849
H          2.94750        5.13082        1.61958
H          4.65925        4.68399        1.87799
H          4.24755        5.01309       -0.53482
H          4.57051        3.28896       -0.21517
H          1.78311        4.52685       -0.50901
H          2.67277        3.67840       -1.79779
H          0.73802        0.90109       -0.77585
H          0.12029        2.54270       -1.11165
H          1.40133        1.84337       -2.13646
