53
CSD_code = QAGROG | q = 0 | S = 0 | Stoichiometry = C19H28ClN3SiTi | MND = 9
Ti         4.38535        0.21929       10.18738
Cl         2.85872       -1.08314        9.14103
Si         5.95267       -2.22704        8.07980
N          3.30058        1.65385        9.78672
N          5.85310        1.38876        9.47070
N          5.73580       -0.72247        8.92577
C          4.45890        0.86538       12.43642
C          5.75183        0.39450       12.13721
C          5.65756       -0.97391       11.81422
C          4.30823       -1.35456       11.91359
C          3.55750       -0.21647       12.28779
C          2.40464        2.48234       10.55030
C          3.48324        2.12311        8.43583
C          4.61052        3.17917        8.30432
C          5.85100        2.79345        9.14934
C          6.16174        0.46815        8.57574
C          6.90881        0.76761        7.32698
C          6.25295        0.81213        6.10232
C          6.96103        1.09200        4.94663
C          8.32387        1.33101        5.00568
C          8.97934        1.29577        6.22526
C          8.27538        1.02002        7.38414
C          4.94455       -2.34107        6.45609
C          7.81195       -2.46027        7.67869
C          5.38596       -3.60777        9.26514
H          4.22419        1.84470       12.83358
H          6.66935        0.95964       12.24009
H          6.49367       -1.63399       11.62770
H          3.91698       -2.35905       11.81641
H          2.50633       -0.22296       12.55836
H          2.86810        3.44652       10.81845
H          1.49503        2.70052        9.97012
H          2.10159        1.97461       11.46688
H          2.54946        2.56414        8.04800
H          3.72472        1.25557        7.79649
H          4.24035        4.15032        8.63606
H          4.88385        3.26166        7.25031
H          5.83163        3.33574       10.10123
H          6.76649        3.07401        8.60864
H          5.18863        0.62700        6.06153
H          6.44750        1.12345        3.99694
H          8.87471        1.54585        4.10211
H         10.04185        1.48347        6.27399
H          8.78117        0.98752        8.33849
H          3.94669       -1.93486        6.59884
H          5.41990       -1.81177        5.63506
H          4.83361       -3.37793        6.15542
H          8.13120       -1.82153        6.86145
H          8.43936       -2.23680        8.53606
H          8.00552       -3.48678        7.38819
H          5.95408       -3.62657       10.19022
H          4.33630       -3.48311        9.51165
H          5.50120       -4.57712        8.79114
