52
CSD_code = QAYRUD | q = 0 | S = 0 | Stoichiometry = C24H21N2O3ReSi | MND = 6
Re         0.25603        0.87210        5.49954
Si        10.00474       -1.81886        7.18836
O         -2.36550        2.52290        5.28169
O         -1.03839       -1.47981        7.04757
O         -0.07733       -0.51584        2.74899
N          1.39888        2.55207        4.75148
N          0.83431        1.99285        7.25996
C         -1.40812        1.90167        5.35685
C         -0.58174       -0.61888        6.43741
C          0.01181       -0.02454        3.78468
C          2.14539        0.00101        5.72980
C          3.31625       -0.27301        5.93605
C          4.60605       -0.59454        6.16249
C          5.77992       -0.85149        6.37919
C          7.06965       -1.14732        6.62051
C          8.23970       -1.40725        6.84200
C         10.10002       -3.54677        7.98992
C         10.98595       -1.80239        5.55230
C         10.71424       -0.50819        8.38162
C          1.65709        2.78425        3.46367
C          2.47387        3.80417        3.02563
C          3.07476        4.65077        3.95589
C          2.80158        4.41108        5.29315
C          1.96695        3.36134        5.67008
C          1.64837        3.05237        7.06891
C          2.14386        3.78771        8.14312
C          1.81713        3.44358        9.44533
C          0.97675        2.34507        9.61749
C          0.51734        1.66148        8.51230
C          3.98887        5.74927        3.52797
C          2.35907        4.19892       10.61213
H          9.53275       -3.58246        8.91526
H          9.69518       -4.30750        7.32919
H         11.12530       -3.82262        8.22096
H         12.03775       -2.01899        5.71775
H         10.60239       -2.54426        4.85829
H         10.92216       -0.83436        5.06417
H         11.75182       -0.71539        8.62830
H         10.67200        0.48534        7.94494
H         10.15421       -0.48091        9.31171
H          1.18632        2.11970        2.75024
H          2.64440        3.93823        1.96926
H          3.24891        5.04476        6.04163
H          2.79179        4.63178        7.97090
H          0.68455        2.02520       10.60506
H         -0.13633        0.80700        8.63407
H          4.98451        5.34381        3.34616
H          3.64031        6.20202        2.60270
H          4.06917        6.51592        4.29442
H          1.64015        4.21738       11.42763
H          3.26325        3.70882       10.97436
H          2.61472        5.21887       10.33584
