59
CSD_code = QICNOF | q = 0 | S = 0 | Stoichiometry = C15H35MoNO2P2S2Si | MND = 6
Mo         1.41802        0.42903        2.70723
P         -0.73607        0.75953        3.64852
P          2.06924        2.37739        1.52871
Si         3.45001        0.18787        6.11742
S          3.12486       -1.08775        1.50102
S          1.21776       -2.00249        3.49529
O         -0.38367        0.26249        0.23274
O          1.21544        2.61468        4.93152
N          2.74376       -3.64800        2.08204
C          0.26340        0.26880        1.18462
C          1.70089        1.71681        4.30673
C          2.97183        0.99277        4.44194
C          4.87457        1.26767        6.78480
C          2.03390        0.15521        7.38879
C          4.06193       -1.58279        5.74888
C          2.39825       -2.37994        2.33494
C          3.75938       -3.99900        1.12248
C          2.14902       -4.76283        2.77405
C         -0.92997        0.37789        5.41983
C         -1.58181        2.36460        3.52440
C         -2.01031       -0.35926        2.97771
C          3.43254        3.44841        2.11941
C          0.79233        3.63370        1.20567
C          2.64686        2.01792       -0.16106
H          3.79153        1.63882        4.11970
H          2.90407        0.17210        3.66407
H          4.55762        2.29671        6.92481
H          5.73197        1.27287        6.11811
H          5.21160        0.89553        7.74647
H          1.28389       -0.58966        7.14225
H          1.54295        1.12165        7.45502
H          2.42234       -0.08351        8.37464
H          4.82523       -1.58806        4.97400
H          3.24594       -2.21708        5.41077
H          4.48941       -2.04277        6.63422
H          4.58930       -4.50306        1.62453
H          4.12977       -3.10092        0.63345
H          3.34160       -4.67175        0.36981
H          1.31214       -4.41666        3.37650
H          2.88570       -5.24005        3.42603
H          1.79277       -5.49666        2.04832
H         -0.36401        1.09194        6.01160
H         -0.54962       -0.63052        5.58770
H         -1.98384        0.42483        5.69714
H         -1.72659        2.60094        2.47118
H         -0.95749        3.12163        3.99424
H         -2.54670        2.30891        4.03016
H         -1.63191       -1.38028        3.03601
H         -2.21001       -0.11200        1.93701
H         -2.93102       -0.27426        3.55621
H          4.35345        2.86589        2.17501
H          3.18319        3.84134        3.10529
H          3.57544        4.27691        1.42467
H          0.47386        4.05275        2.15910
H         -0.05288        3.14510        0.72301
H          1.18307        4.42287        0.56172
H          1.84573        1.51229       -0.69813
H          3.50262        1.34484       -0.09961
H          2.92708        2.93221       -0.68529
