38
CSD_code = QIQNEJ | q = 0 | S = 0 | Stoichiometry = C10H19FeN3O4Si | MND = 5
Fe         2.02958        0.25047        4.26526
Si         3.30763       -0.93307        5.75531
N          1.76139       -2.15586        7.02519
H          1.08107       -1.43630        7.25275
N          4.35672       -2.27186        5.43410
N          4.04214       -0.24678        7.19538
O          0.50090        1.93531        2.46838
O          4.36311        1.93611        3.65718
O          0.12136        0.92591        6.39601
O          1.32049       -2.03514        2.55053
C          2.26291       -2.74843        8.25387
H          2.80628       -1.99684        8.81950
H          2.94327       -3.55781        8.00120
H          1.45416       -3.15195        8.87296
C          1.12796       -3.13642        6.16099
H          0.71470       -2.63116        5.29105
H          0.32914       -3.68152        6.67401
H          1.88046       -3.84661        5.82427
C          5.19224       -2.96298        6.39199
H          5.07527       -2.52067        7.37476
H          6.24492       -2.90393        6.09610
H          4.92025       -4.02336        6.43509
C          4.49701       -2.83805        4.11459
H          3.91216       -2.26819        3.39975
H          4.16117       -3.88034        4.09690
H          5.54551       -2.81564        3.80172
C          3.27004        0.64943        8.02735
H          2.24326        0.30736        8.10729
H          3.25701        1.66956        7.62433
H          3.70785        0.68559        9.02844
C          5.41997        0.20388        7.13237
H          5.98490       -0.41366        6.44314
H          5.87230        0.14109        8.12551
H          5.48232        1.24344        6.79231
C          1.10832        1.26415        3.17691
C          3.46799        1.25401        3.90877
C          0.89659        0.66664        5.57537
C          1.64548       -1.17319        3.24767
