54
CSD_code = QOPYID | q = 0 | S = 0 | Stoichiometry = C24H26Cl2SiZr | MND = 12
Zr         2.01637        2.26580        2.79291
Cl         4.17568        2.15627        1.94452
Cl         1.79198        4.56580        2.56832
Si         4.64726        2.73968        5.38278
C          0.32808       -0.22675        3.57045
C          0.50849        0.47201        2.20779
C         -0.14582        1.70737        1.83809
C         -1.26230        2.42586        2.33239
H         -1.87485        2.03838        3.13105
C         -1.63954        3.60863        1.74081
H         -2.49540        4.13971        2.13149
C         -0.96270        4.14062        0.63613
H         -1.29968        5.06893        0.20239
C          0.11479        3.47492        0.10275
H          0.63339        3.86238       -0.76401
C          0.53993        2.27979        0.69555
C          1.60936        1.39310        0.34292
C          2.53006        1.46207       -0.70786
H          2.50271        2.29710       -1.39497
C          3.45695        0.45798       -0.85305
H          4.18016        0.49394       -1.65256
C          3.45919       -0.62542        0.03293
H          4.18610       -1.41169       -0.10828
C          2.56094       -0.72851        1.06876
H          2.58990       -1.61790        1.67608
C          1.59746        0.28618        1.27777
C          0.92926       -1.63718        3.62661
H          2.00990       -1.62893        3.54168
H          0.50913       -2.25553        2.83659
H          0.68584       -2.09201        4.58506
C         -1.15100       -0.37134        3.96806
H         -1.25100       -1.11530        4.75525
H         -1.73503       -0.69948        3.11124
H         -1.57530        0.54913        4.34992
C          1.10791        0.74365        4.45791
C          2.52852        0.78844        4.54443
H          3.22207       -0.02999        4.38031
C          2.91810        2.07031        5.03427
C          1.72619        2.81259        5.23347
H          1.66723        3.79605        5.68324
C          0.62593        2.01497        4.87218
H         -0.40619        2.30240        5.01831
C          5.96500        1.46339        4.85572
H          5.86843        0.53904        5.41794
H          6.96189        1.85065        5.03817
H          5.88970        1.22831        3.79890
C          4.80417        3.03565        7.26709
H          4.71184        2.11011        7.82564
H          4.04249        3.71639        7.63256
H          5.77053        3.46671        7.50457
C          4.76711        4.41891        4.48005
H          5.72777        4.89609        4.64760
H          3.99737        5.10460        4.82817
H          4.63833        4.30304        3.40529
