80
CSD_code = QUBHUS | q = 0 | S = 0 | Stoichiometry = C28H48NPSiZr | MND = 13
Zr         2.16874        2.79953        6.19840
N          4.22311        2.45240        2.09971
Si         2.89915        1.50813        2.70353
P         -0.57692        2.23551        6.29562
C          2.98504        1.26815        4.55562
H          3.97344        1.18165        5.00605
C          1.96310        0.43951        5.07936
H          1.21799        0.08572        4.36465
C          1.72987        0.04355        6.39720
H          0.91689       -0.65732        6.55403
C          2.29737        0.58998        7.57081
C          3.46604        1.37524        7.66496
H          4.27696        1.18964        6.95654
C          3.99657        1.67124        9.06916
H          4.24250        2.72967        9.19424
H          4.92837        1.11631        9.23206
C          2.98025        1.26743       10.13127
H          3.29565        1.56636       11.13294
C          1.58309        1.69339        9.65009
H          1.52751        2.60345        9.03834
H          0.85025        1.73767       10.45392
C          1.56626        0.36372        8.87318
H          0.61239       -0.15277        8.74487
C          2.54449       -0.20521        9.93704
C          3.57759       -1.22537        9.47816
H          4.37898       -1.30032       10.21115
H          4.00456       -0.96575        8.51523
H          3.10970       -2.20361        9.38307
C          1.82608       -0.76633       11.16124
H          1.29729       -1.68129       10.89894
H          1.10676       -0.06530       11.57438
H          2.55096       -1.00355       11.93800
C          2.78164       -0.17302        1.76088
H          2.79718       -0.01739        0.68567
H          1.86553       -0.70500        1.99811
H          3.60815       -0.83423        2.00343
C          1.23618        2.40232        2.34925
H          0.73814        2.62651        3.29475
H          0.57193        1.77821        1.75899
H          1.36432        3.33492        1.81126
C          5.54581        2.36628        2.67239
H          5.45015        2.40068        3.75893
H          6.12663        3.23876        2.35738
C          6.29963        1.09219        2.28566
H          5.77614        0.22299        2.67376
H          7.30694        1.11122        2.69509
H          6.36718        0.99837        1.20455
C          4.18365        2.96162        0.74707
H          3.27537        2.60042        0.26337
H          5.03637        2.57966        0.17245
C          4.19284        4.49064        0.70042
H          3.31842        4.88633        1.21002
H          4.18208        4.83378       -0.33153
H          5.07935        4.88826        1.18782
C          2.80450        4.45106        4.60484
H          3.06269        4.45593        3.55118
C          3.92115        4.24395        5.49746
H          4.88827        4.13231        5.01308
C          3.93080        4.27911        6.90264
H          4.90904        4.18491        7.37408
C          2.83328        4.50654        7.80078
H          3.09331        4.58522        8.85532
C          1.47600        4.74860        7.49193
H          0.83967        4.98335        8.34690
C          0.84750        4.83745        6.21567
H         -0.16392        5.24048        6.22185
C          1.46810        4.74224        4.92269
H          0.81879        4.97239        4.07856
C         -1.48592        0.60621        6.29219
H         -2.56222        0.77111        6.24316
H         -1.25788        0.04763        7.19681
H         -1.17951        0.01566        5.43112
C         -1.61320        2.97350        4.94500
H         -2.66076        2.99659        5.24608
H         -1.51523        2.35296        4.05478
H         -1.28637        3.98062        4.70383
C         -1.46249        2.91854        7.77470
H         -1.26554        3.98167        7.88105
H         -1.10269        2.40593        8.66600
H         -2.53665        2.75822        7.68072
