92
CSD_code = QUDZOF | q = 0 | S = 0 | Stoichiometry = C32H56ClPRuSi | MND = 8
Ru         8.35314        8.22034       10.46666
Cl         7.13033       11.90857       10.38607
P          7.20313        6.80990       11.87965
Si         7.72996       10.18842       11.47644
C          9.02716        6.85953        8.83775
C          4.62729        6.26209       13.12068
H          3.65858        6.69280       13.37183
H          5.11540        5.98429       14.05073
H          4.44921        5.36378       12.53465
C          7.69900        8.69279        8.34315
C          6.77738       12.11079       15.09872
H          5.87992       12.38057       15.63674
C          9.08164       11.43439       13.72127
C          9.14769       12.12060       14.92375
H         10.11149       12.39996       15.31850
C          6.94283        5.06664       11.33857
H          6.62182        4.44803       12.17572
H          7.87822        4.68032       10.94010
H          6.18707        5.04309       10.55605
C          9.56374        5.45882        8.74644
H         10.08326        5.32957        7.79279
H          8.76756        4.71844        8.79509
H         10.27497        5.25071        9.54548
C          7.91445        6.46669       13.57800
H          7.19609        5.84990       14.13090
C          4.45663       10.34491       14.39594
H          5.01259        9.50807       14.81429
H          3.54987        9.96212       13.93180
H          4.16437       10.99901       15.21321
C          5.29975       11.09784       13.36392
H          5.41500       10.45150       12.48584
C          6.59062        6.38956        8.00938
H          6.60346        6.38573        6.91576
H          5.60907        6.73869        8.32696
H          6.71893        5.36309        8.34604
C          9.85828        8.02220        8.84195
C          8.00557       12.46579       15.62949
C          7.69319        7.28207        8.50170
C          5.43850        7.28558       12.33316
H          5.56315        8.18495       12.94618
C          6.67518       11.42833       13.89467
C          7.83294       11.08615       13.18787
C          4.58305       12.37230       12.91405
H          5.15306       12.86765       12.13279
H          4.46835       13.06342       13.74573
H          3.59591       12.13289       12.52376
C          9.22333        5.69759       13.43383
H          9.72471        5.62197       14.39714
H          9.87626        6.23207       12.74474
H          9.05864        4.69142       13.05612
C          9.04268        9.16079        8.56327
C          4.68840        7.67959       11.06469
H          3.76779        8.20768       11.30826
H          4.42556        6.79649       10.48463
H          5.31011        8.33467       10.45111
C         11.35838        8.01269        8.85679
H         11.72826        7.91106        7.83267
H         11.74285        7.17998        9.44233
H         11.75627        8.93686        9.27238
C          6.59737        9.50217        7.72514
H          6.74810        9.55329        6.64338
H          6.58360       10.51882        8.11213
H          5.62236        9.05306        7.90793
C         10.35978       11.13410       12.97359
H         10.16592       10.32224       12.26513
C          8.15470        7.76918       14.32902
H          8.56367        7.56653       15.31766
H          7.23653        8.33891       14.45034
H          8.86358        8.37832       13.77154
C          8.83513       12.37930       17.98585
H          8.35023       11.41422       18.11672
H          8.84367       12.89661       18.94306
H          9.86376       12.20574       17.68000
C         11.49458       10.67136       13.88858
H         11.14506        9.88806       14.55703
H         11.89223       11.48976       14.48392
H         12.30827       10.27151       13.28770
C          8.09049       13.21054       16.93904
H          7.07043       13.38113       17.30229
C          9.56036       10.51842        8.18607
H          9.85035       10.51718        7.13185
H         10.43402       10.78649        8.77847
H          8.80313       11.28549        8.32868
C          8.76085       14.57278       16.75019
H          8.75408       15.12990       17.68484
H          8.23267       15.15277       15.99648
H          9.79291       14.45460       16.42983
C         10.77774       12.37137       12.17465
H          9.99120       12.65714       11.48028
H         11.68419       12.16891       11.60799
H         10.96665       13.21028       12.84168
H          9.54762        8.09678       11.44055
