95
CSD_code = RAPSOT | q = 0 | S = 0 | Stoichiometry = C39H52FeN2Si | MND = 9
Fe        14.29793        2.17288        0.69472
Si        13.75819        0.00208        0.64280
N         14.36708        2.93044        3.53454
N         12.55314        3.57495        2.56466
C         13.73632        2.95589        2.34018
C         13.56952        3.49050        4.51141
C         12.42418        3.89620        3.89981
C         15.68399        2.35905        3.72351
C         15.60487        0.98408        4.38262
C         16.63897        3.29121        4.46970
C         13.92535        3.63034        5.95037
C         11.24719        4.56525        4.51999
C         11.58039        3.80983        1.51778
C         10.44548        2.78676        1.55886
C         11.04030        5.24069        1.50764
C         13.16866       -0.71655        2.31248
C         12.47068        0.08341        3.20708
C         12.03497       -0.39828        4.42775
C         12.29202       -1.71262        4.78066
C         12.98540       -2.52884        3.90361
C         13.41561       -2.03224        2.68515
C         15.20702       -1.15723        0.21515
C         16.25222       -1.27478        1.12397
C         17.32296       -2.11782        0.89384
C         17.37331       -2.86701       -0.27062
C         16.34290       -2.76609       -1.18915
C         15.27212       -1.92280       -0.94197
C         12.32799       -0.55767       -0.49648
C         11.51433        0.37273       -1.12717
C         10.45914       -0.01080       -1.93497
C         10.19014       -1.35580       -2.12224
C         10.97416       -2.30195       -1.48321
C         12.02700       -1.90348       -0.67865
C         15.85325        3.42550        0.30149
C         14.64550        4.03367       -0.14404
C         14.06842        3.19375       -1.12234
C         14.91742        2.06266       -1.29620
C         16.02617        2.21842       -0.42522
C         16.88313        4.11461        1.13089
C         14.22920        5.42059        0.21878
C         12.92249        3.55015       -2.01352
C         14.77771        1.06808       -2.39824
C         17.25467        1.37696       -0.37126
H         14.98400        1.30564        1.56557
H         12.92733        1.85778        0.65181
H         16.03924        2.21283        2.69997
H         12.15606        3.62737        0.60854
H         12.29466        1.10729        2.92732
H         11.49789        0.24980        5.10741
H         11.95649       -2.09800        5.73343
H         13.19217       -3.55571        4.17241
H         13.96672       -2.67641        2.01565
H         16.21431       -0.68236        2.02556
H         18.12164       -2.19467        1.61915
H         18.20845       -3.52699       -0.45921
H         16.37223       -3.34957       -2.09950
H         14.46860       -1.86579       -1.66174
H         11.72088        1.41730       -0.95694
H          9.84385        0.73656       -2.41825
H          9.36974       -1.66521       -2.75467
H         10.76082       -3.35413       -1.61312
H         12.62413       -2.65029       -0.17691
H         10.84728        1.79288        1.38080
H         11.81233        5.95122        1.78881
H         11.26020        5.64010        4.34021
H         13.02414        3.81053        6.53106
H         17.66289        3.04080        4.20488
H         14.96365        0.34070        3.78690
H         17.58595        3.40509        1.55730
H         17.55189        1.19905        0.65936
H         14.98487        1.54483       -3.35902
H         13.24214        4.30884       -2.73161
H         13.27029        5.67237       -0.22295
H         16.59969        0.54902        4.43396
H         15.20044        1.03368        5.38976
H         16.46219        4.32818        4.19703
H         16.54251        3.19166        5.54662
H         14.39515        2.72897        6.33187
H         14.59935        4.47134        6.11249
H         10.31468        4.16079        4.13747
H         11.26520        4.40786        5.59554
H          9.93007        2.78882        2.51543
H          9.72558        3.01316        0.77663
H         10.69982        5.48648        0.50446
H         10.19443        5.35799        2.17820
H         17.44788        4.81658        0.51253
H         16.41450        4.67706        1.93343
H         14.16316        5.53452        1.29915
H         14.97033        6.13366       -0.14760
H         12.58302        2.68189       -2.57001
H         12.07886        3.95398       -1.45652
H         15.47501        0.24715       -2.26712
H         13.77103        0.65821       -2.42931
H         17.09530        0.41371       -0.84357
H         18.07537        1.88333       -0.88339
