52
CSD_code = RAZFAZ | q = 0 | S = 0 | Stoichiometry = C16H31ClN2SiZr | MND = 9
Zr         6.36906        7.81803        4.50863
Cl         6.54990        8.20910        6.85146
Si         6.85753        6.88533        1.67714
N          7.77155        7.18017        3.11019
N          6.49067        5.42702        5.56875
C          5.17644        7.10081        2.52631
C          4.67444        6.28217        3.57437
C          3.85851        7.07381        4.41517
C          3.84487        8.38670        3.89774
C          4.65655        8.40249        2.75050
C          6.91227        8.14749        0.22800
C          7.12114        5.18910        0.80425
C          9.19761        7.45419        3.18914
C          9.64395        8.50972        2.16165
C         10.01454        6.17121        2.93290
C          9.52750        8.00963        4.59634
C          4.92411        4.80611        3.72764
C          6.26667        4.52869        4.42657
C          7.82080        5.16763        6.12262
C          5.52227        5.14576        6.63441
C          6.73206       10.01549        4.27631
H          3.20019        6.71896        5.20112
H          3.21370        9.19475        4.24991
H          4.77838        9.24315        2.07910
H          7.77248        7.98568       -0.41287
H          6.02726        8.05656       -0.39330
H          6.95820        9.17008        0.58829
H          7.98415        5.23633        0.14804
H          7.28272        4.36647        1.49246
H          6.26445        4.94012        0.18751
H          8.99567        9.38019        2.23242
H          9.57737        8.10708        1.15612
H         10.67131        8.81285        2.35108
H          9.75619        5.76829        1.95781
H          9.79906        5.41277        3.68241
H         11.08047        6.38574        2.95299
H         10.58720        7.87989        4.81458
H          9.29971        9.07641        4.63257
H          8.93984        7.50159        5.36966
H          4.95176        4.33421        2.74259
H          4.10501        4.34593        4.28857
H          6.30711        3.47367        4.75168
H          7.07601        4.71148        3.71195
H          7.89355        4.14020        6.51331
H          8.01189        5.86222        6.94328
H          8.57850        5.29371        5.34910
H          4.50549        5.30188        6.28424
H          5.70680        5.81870        7.47188
H          5.61663        4.10683        6.98490
H          5.79859       10.54357        4.53742
H          7.00396       10.32780        3.25687
H          7.50172       10.40959        4.95781
