64
CSD_code = REDREX | q = 1 | S = 0 | Stoichiometry = C25H31ClN4OReSi(1+) | MND = 6
Re        -2.25640       -3.25238        3.26128
Cl        -4.46828       -3.78792        3.67146
Si        -2.82959       -5.28072        0.52017
O         -2.31053       -4.31256        1.69192
N         -2.12843       -2.11670        4.59438
N         -1.67939       -4.96069        4.41998
N         -3.14190       -1.60941        1.93302
H         -2.77584       -1.73085        0.98845
H         -4.13293       -1.87267        1.93721
N         -0.12171       -2.83904        2.66995
C         -2.18500       -1.14950        5.50516
C         -1.21281       -0.12925        5.56609
H         -0.39039       -0.15437        4.86835
C         -1.33947        0.88945        6.48350
H         -0.59540        1.67016        6.52001
C         -2.41658        0.91959        7.35976
H         -2.50556        1.72133        8.07585
C         -3.37984       -0.08005        7.31309
H         -4.21814       -0.05231        7.99208
C         -3.27408       -1.10772        6.40381
H         -4.01869       -1.88576        6.33605
C         -2.16772       -5.17002        5.64619
H         -2.70707       -4.34799        6.09653
C         -2.01410       -6.37139        6.31303
H         -2.43532       -6.49317        7.29767
C         -1.32967       -7.40579        5.69316
H         -1.20503       -8.35967        6.18092
C         -0.81302       -7.18186        4.42638
H         -0.27078       -7.95144        3.90078
C         -1.00969       -5.95074        3.82876
H         -0.63136       -5.75753        2.83404
C         -2.98171       -0.26420        2.39181
C         -3.91876        0.28032        3.26065
H         -4.77777       -0.30478        3.55170
C         -3.73559        1.55795        3.75683
H         -4.46538        1.97891        4.42993
C         -2.62306        2.29556        3.38803
H         -2.48453        3.29346        3.77224
C         -1.69166        1.75340        2.51872
H         -0.82793        2.32855        2.22348
C         -1.86714        0.47506        2.01919
H         -1.14044        0.04946        1.34177
C          0.23235       -2.89302        1.38898
H         -0.54366       -3.16894        0.68809
C          1.52227       -2.64483        0.95296
H          1.75551       -2.70335       -0.09795
C          2.49401       -2.32444        1.88757
H          3.50938       -2.12324        1.58400
C          2.12708       -2.27575        3.22467
H          2.84749       -2.03871        3.99066
C          0.81460       -2.54028        3.57132
H          0.49366       -2.51759        4.60332
C         -3.37059       -6.93957        1.29323
H         -2.52233       -7.54476        1.60207
H         -3.94391       -7.51825        0.57754
H         -3.99874       -6.77723        2.16470
C         -1.40237       -5.55473       -0.71859
H         -0.47932       -5.85992       -0.23233
H         -1.18877       -4.66681       -1.30745
H         -1.67729       -6.33925       -1.41380
C         -4.30029       -4.43280       -0.35938
H         -5.09468       -4.19761        0.34345
H         -4.71394       -5.09830       -1.10881
H         -4.01345       -3.51383       -0.86540
