79
CSD_code = RISZAU | q = 0 | S = 0 | Stoichiometry = C28H41BClN6NbSi | MND = 8
Nb         9.04602        2.97048        2.03093
Cl         9.63880        3.04827       -0.23665
Si        10.76555        5.22687        4.50213
N          8.35440        5.09231        1.76769
N          7.08480        5.42698        2.07458
N          6.72145        2.64689        1.24713
N          5.75672        3.33171        1.88110
N          7.89573        3.08818        3.93967
N          6.81832        3.88806        4.05385
C         10.86255        3.86370        3.18631
C         11.49605        0.45051        1.98506
C         10.18514        1.14030        2.11237
C          8.93311        0.84293        2.30361
C         10.79712        4.49678        6.27662
C         12.32215        6.34797        4.37820
C          9.26983        6.42688        4.48396
C         10.30778        6.19072        0.65030
C          8.89901        6.12431        1.12183
C          7.95035        7.14138        1.00114
C          6.80987        6.66270        1.61784
C          5.49972        7.34853        1.76688
C          6.89623        0.82366       -0.42805
C          6.14286        1.75154        0.45697
C          4.75290        1.86061        0.58834
C          4.54527        2.87439        1.50361
C          3.25732        3.40184        2.02645
C          8.05833       -0.29612        2.43304
C          6.83004       -0.19021        3.09406
C          5.97917       -1.27461        3.17647
C          6.33070       -2.48420        2.59770
C          7.54363       -2.60307        1.93754
C          8.40183       -1.52390        1.85565
C          9.19949        1.54696        5.40367
C          8.12859        2.54338        5.13691
C          7.18392        3.02116        6.04466
C          6.36606        3.87190        5.32046
C          5.20463        4.65844        5.81117
B          6.12266        4.49189        2.81786
H         11.48729        3.07763        3.62711
H         11.46284        4.25190        2.35548
H          5.15640        5.07881        3.15019
H         12.30820        1.06067        2.38111
H         11.48475       -0.51248        2.50044
H         11.69663        0.28030        0.92463
H         11.06847        5.26456        6.99493
H         11.52266        3.69530        6.37164
H          9.82904        4.10491        6.56946
H         12.32503        7.10360        5.15763
H         13.23228        5.76623        4.48508
H         12.37989        6.86659        3.42569
H          9.29683        7.06693        5.36188
H          9.27158        7.07442        3.61296
H          8.32357        5.89537        4.50116
H         10.40851        7.00096       -0.06884
H         10.97470        6.38634        1.48982
H         10.60785        5.25699        0.17710
H          8.07946        8.09398        0.52818
H          5.55138        8.32646        1.29557
H          5.24659        7.47799        2.81768
H          4.70671        6.77179        1.29421
H          6.61699        0.99558       -1.46750
H          7.96882        0.97875       -0.32070
H          6.65896       -0.21000       -0.17911
H          4.00810        1.27824        0.08489
H          2.43309        2.87027        1.55865
H          3.15661        4.46471        1.81373
H          3.19581        3.26580        3.10516
H          6.55092        0.75516        3.54185
H          5.03242       -1.17828        3.68902
H          5.66120       -3.32963        2.65849
H          7.81916       -3.54445        1.48350
H          9.34062       -1.61192        1.32889
H          9.33594        1.43656        6.47670
H         10.13548        1.85845        4.94566
H          8.92044        0.57874        4.98591
H          7.10469        2.78158        7.08567
H          5.10844        4.52618        6.88536
H          5.34014        5.71643        5.59574
H          4.28285        4.33174        5.33330
