101
CSD_code = RIVPIW | q = 0 | S = 0 | Stoichiometry = C40H55LaNO2PSi | MND = 9
La         7.94294       18.88406        3.11969
Si         7.41388       20.86617        5.78016
P         10.06767       17.96637        1.56289
N          7.35578       20.90534        4.06015
O          6.09262       16.93730        3.46187
O          6.66140       19.39859        0.72061
C          7.99181       19.07561        6.03709
C          9.13800       18.53417        5.28851
C          9.20775       17.12584        5.60842
C          8.17486       16.82481        6.47517
C          7.43364       18.02184        6.73618
C         10.43042       19.31904        5.10788
H         10.98558       19.29582        6.05059
H         10.23684       20.36399        4.86551
H         11.07394       18.88389        4.33709
C         10.31110       16.22083        5.14781
H         10.00846       15.17510        5.18889
H         11.18999       16.33568        5.78584
H         10.60761       16.45783        4.12327
C          7.89309       15.49947        7.11103
H          8.38259       15.43412        8.08489
H          8.26505       14.67750        6.50036
H          6.82517       15.35634        7.27236
C          6.28745       18.07752        7.69524
H          6.57446       17.61991        8.64266
H          5.41113       17.53772        7.32612
H          6.00268       19.10630        7.88402
C          5.71596       21.33439        6.54928
H          5.36605       22.25071        6.08305
H          5.80003       21.52485        7.61373
H          4.95144       20.57802        6.40472
C          8.59588       22.08694        6.68671
H          9.60080       22.09028        6.27902
H          8.67494       21.82582        7.73792
H          8.21260       23.10162        6.63108
C          6.81814       21.91571        3.27831
C          5.49454       21.82434        2.79260
C          4.98052       22.80930        1.96637
H          3.95831       22.72250        1.61800
C          5.73446       23.90869        1.58446
C          7.03389       24.00162        2.06458
H          7.63838       24.85404        1.78317
C          7.57987       23.04137        2.89826
C          4.64434       20.64546        3.16898
H          4.35856       20.70750        4.21786
H          5.20973       19.71182        3.03812
H          3.73955       20.61205        2.56321
C          5.17839       24.96380        0.67411
H          5.70734       24.96247       -0.27974
H          5.29503       25.95215        1.11660
H          4.12167       24.79327        0.48147
C          8.98274       23.20940        3.40112
H          9.59943       23.72641        2.66806
H          9.42200       22.23912        3.62692
H          8.98388       23.79458        4.31991
C         10.35233       19.30375        0.36674
C         10.12815       20.63298        0.72829
H          9.69777       20.85277        1.70501
C         10.43601       21.66458       -0.13822
H         10.24292       22.68644        0.15500
C         10.97678       21.38874       -1.38403
H         11.20655       22.19318       -2.06709
C         11.23157       20.07404       -1.74446
H         11.67094       19.85451       -2.70746
C         10.93955       19.04280       -0.87380
H         11.16114       18.02027       -1.14796
C          9.17953       16.73347        0.57157
C          8.57737       16.97636       -0.66679
H          8.63365       17.96272       -1.10611
C          7.90719       15.96961       -1.33400
H          7.44765       16.17693       -2.29146
C          7.81763       14.69727       -0.79067
H          7.29467       13.91374       -1.31891
C          8.41628       14.43867        0.43370
H          8.36350       13.44658        0.86141
C          9.09028       15.44008        1.10233
H          9.56900       15.23234        2.05140
C          6.50405       15.56046        3.47446
H          7.28381       15.42924        4.23447
H          6.91113       15.32148        2.48878
C          5.26114       14.75767        3.83311
H          5.50626       13.78597        4.25332
H          4.63009       14.61844        2.95429
C          4.58938       15.69114        4.83569
H          3.52073       15.51624        4.93485
H          5.05916       15.58541        5.81263
C          4.89420       17.06834        4.24959
H          4.08702       17.39828        3.58298
H          5.05889       17.82775        5.01929
C          5.63422       18.59645        0.12046
H          4.75894       18.59954        0.78370
H          6.00136       17.56933        0.01625
C          5.29640       19.23968       -1.22321
H          4.25482       19.09191       -1.49851
H          5.93103       18.82988       -2.00951
C          5.65281       20.70113       -0.96719
H          4.86483       21.19897       -0.40217
H          5.84872       21.26168       -1.87738
C          6.89624       20.55088       -0.10236
H          7.78371       20.37510       -0.72545
H          7.07641       21.40919        0.54872
