52
CSD_code = RIZROJ | q = 0 | S = 0 | Stoichiometry = C26H22FeO2Si | MND = 8
Fe         6.10827        2.25436        1.45815
Si         5.01462        2.25154        3.41696
O          3.65147        2.39441       -0.05432
O          5.99050        5.14226        1.52119
C          4.59762        2.31538        0.59319
C          6.04792        3.99524        1.53743
C          8.09801        1.56811        2.14347
H          8.66937        1.86909        3.00616
C          7.24406        0.43986        2.07631
H          7.02863       -0.23873        2.88396
C          6.81821        0.30499        0.73800
H          6.25331       -0.52072        0.33581
C          7.45036        1.31920       -0.03297
H          7.41950        1.40406       -1.10710
C          8.25264        2.09658        0.83294
C          9.20697        3.17494        0.43041
H         10.17902        2.73685        0.19671
H          9.34318        3.89147        1.23692
H          8.85017        3.70175       -0.45141
C          6.37621        2.20306        4.75218
C          6.59634        1.09240        5.55611
H          5.95536        0.22856        5.45004
C          7.61608        1.07881        6.49240
H          7.77140        0.20533        7.10994
C          8.43712        2.18370        6.63843
H          9.23417        2.17576        7.36793
C          8.23202        3.30080        5.84376
H          8.87039        4.16625        5.95381
C          7.21330        3.30389        4.90961
H          7.05557        4.17173        4.28435
C          3.92026        3.74128        3.90475
C          3.02950        4.29643        2.99226
H          2.97330        3.88598        1.99503
C          2.22123        5.36404        3.33721
H          1.53831        5.78107        2.61099
C          2.28893        5.90032        4.61231
H          1.66028        6.73577        4.88466
C          3.16816        5.36022        5.53484
H          3.22748        5.77338        6.53192
C          3.97307        4.29199        5.18110
H          4.65980        3.87961        5.90639
C          3.89176        0.72574        3.66336
C          3.25858        0.52345        4.88604
H          3.41028        1.23886        5.68121
C          2.43903       -0.57110        5.09307
H          1.95649       -0.71230        6.04966
C          2.23269       -1.48497        4.07273
H          1.59187       -2.34032        4.23135
C          2.84707       -1.29327        2.84687
H          2.68464       -1.99959        2.04506
C          3.66753       -0.19683        2.64946
H          4.14252       -0.04350        1.69046
