146
CSD_code = RUCKUX | q = 0 | S = 0 | Stoichiometry = C50H89MoNP4Si | MND = 5
Mo         9.02552        5.31853        3.84787
N          7.76218        4.37560        2.98994
P         10.69517        6.55305        4.96949
P         10.67228        3.72191        4.46137
P          7.92754        6.31208        5.71273
P          9.81583        6.89826        2.25793
C         12.01525        5.64380        5.89475
H         12.91271        6.26302        6.01363
H         11.61774        5.40874        6.88702
C         12.28268        4.38106        5.10535
H         12.81205        3.62338        5.69064
H         12.88518        4.62205        4.22140
C         10.20152        7.73325        6.30493
H         11.03449        7.92086        6.99342
H          9.92386        8.67699        5.82597
C          9.01215        7.10182        6.99322
H          8.44818        7.81714        7.59900
H          9.35515        6.28747        7.64252
C         11.77646        7.69948        3.99940
H         12.19761        8.48288        4.64120
H         12.59799        7.10815        3.58431
C         10.89863        8.25962        2.90057
H         11.47628        8.71893        2.09283
H         10.22305        9.01525        3.31893
C         10.21523        2.43070        5.74594
H         10.84664        1.54835        5.58652
C          8.75040        2.06075        5.53160
H          8.14876        2.96851        5.64109
H          8.58230        1.70650        4.51478
C          8.30028        0.99089        6.52095
H          7.24767        0.75746        6.35001
H          8.87145        0.07485        6.34541
C          8.51801        1.44879        7.95918
H          7.88362        2.31281        8.16753
H          8.23594        0.65435        8.65429
C          9.97560        1.83693        8.17625
H         10.60764        0.95417        8.04718
H         10.11848        2.20017        9.19760
C         10.41144        2.91161        7.18219
H         11.46042        3.15067        7.37089
H          9.82015        3.82075        7.33411
C         11.38906        2.60528        3.12923
H         11.75391        3.33177        2.38707
C         10.29236        1.76920        2.47779
H          9.43270        2.41116        2.25771
H          9.96670        0.99247        3.17248
C         10.80619        1.08407        1.21474
H         10.01253        0.47690        0.77409
H         11.09983        1.83177        0.47666
C         12.00365        0.19965        1.55005
H         11.68275       -0.60322        2.21827
H         12.39792       -0.26026        0.64107
C         13.09687        1.01522        2.23330
H         13.47135        1.77339        1.54053
H         13.93546        0.36546        2.49570
C         12.56598        1.69773        3.49526
H         13.37608        2.26428        3.95737
H         12.24855        0.92545        4.19849
C          6.94220        5.21282        6.88228
H          7.67111        4.42942        7.13759
C          6.44427        5.82034        8.19655
H          7.25768        6.29102        8.75035
H          5.68326        6.57926        8.00366
C          5.82851        4.72486        9.06848
H          6.59445        3.98617        9.31791
H          5.47356        5.16170       10.00525
C          4.67495        4.03546        8.34808
H          3.87839        4.76187        8.16741
H          4.26535        3.24226        8.97734
C          5.14326        3.45768        7.01575
H          4.29234        3.01914        6.49024
H          5.86750        2.66137        7.19136
C          5.77284        4.55222        6.15784
H          5.00483        5.30223        5.95561
H          6.12599        4.14599        5.20331
C          6.64775        7.65498        5.40188
H          5.95370        7.66826        6.25120
C          7.24971        9.05010        5.24962
H          7.76616        9.35179        6.16331
H          7.97853        9.03323        4.43248
C          6.16082       10.07919        4.95109
H          5.46920       10.12280        5.79686
H          6.61074       11.06937        4.84012
C          5.39022        9.71206        3.68877
H          6.06793        9.74724        2.83303
H          4.59417       10.43942        3.51228
C          4.80365        8.31041        3.81846
H          4.06552        8.30524        4.62575
H          4.28523        8.03172        2.89833
C          5.89583        7.29073        4.12589
H          6.62068        7.23768        3.30842
H          5.45879        6.29692        4.20821
C          8.53997        7.97449        1.39203
H          8.01022        8.42880        2.24312
C          9.02800        9.11706        0.49844
H          9.74147        9.75421        1.02382
H          9.51840        8.72314       -0.39386
C          7.83363        9.96604        0.05863
H          7.36479       10.41599        0.93749
H          8.18139       10.77993       -0.58238
C          6.80495        9.12265       -0.68899
H          7.25446        8.73878       -1.60820
H          5.95144        9.74356       -0.97005
C          6.34130        7.95159        0.17324
H          5.64786        7.32531       -0.39251
H          5.80894        8.32982        1.04664
C          7.54260        7.12049        0.61427
H          7.22870        6.27338        1.23379
H          8.02615        6.73137       -0.28409
C         10.79722        6.30868        0.76508
H         10.68113        7.05323       -0.03184
C         12.28839        6.12899        1.04115
H         12.74737        7.07789        1.32642
H         12.41272        5.42388        1.86964
C         13.00832        5.60267       -0.19939
H         12.92109        6.33965       -1.00239
H         14.07195        5.47535        0.01898
C         12.40924        4.28038       -0.66234
H         12.91408        3.93843       -1.56904
H         12.56793        3.52561        0.11098
C         10.91501        4.44152       -0.92051
H         10.47787        3.48437       -1.21397
H         10.76875        5.13780       -1.75134
C         10.20423        4.97702        0.31854
H         10.28993        4.27261        1.15076
H          9.13988        5.08245        0.11584
C          4.84199        4.29209        2.17888
H          4.45212        4.39126        3.18672
H          4.13533        3.69306        1.61241
H          4.86456        5.28411        1.73826
C          6.96947        3.22079        0.29472
H          6.84257        4.14067       -0.26769
H          6.29961        2.48079       -0.13328
H          7.98680        2.87694        0.13761
Si         6.58020        3.48210        2.15524
C          6.35091        1.72169        2.86597
C          7.04424        0.63531        2.34484
H          7.70673        0.78692        1.50581
C          6.89710       -0.63733        2.86663
H          7.45094       -1.46407        2.44129
C          6.03700       -0.85577        3.92882
H          5.91850       -1.84856        4.34063
C          5.32216        0.20813        4.45135
H          4.63496        0.04644        5.27181
C          5.48233        1.47616        3.92182
H          4.90907        2.29374        4.33135
