93
CSD_code = RUQSIH | q = 0 | S = 0 | Stoichiometry = C40H44CrO7Si | MND = 9
Cr         1.43936        6.11494       10.73281
C          3.13524        6.72399       10.48945
O          4.18973        7.17641       10.34000
C          1.45370        7.31080       12.10607
O          1.48484        8.11572       12.93412
C          1.08324        7.60418        9.75992
O          0.92936        8.58124        9.15463
C          1.49249        4.22226        9.45082
O          2.07157        3.97309        8.22594
C          3.16747        4.80455        7.87517
H          3.44642        4.50621        6.86637
H          4.01615        4.65847        8.54620
H          2.86936        5.86008        7.88860
C          0.20786        4.80252        9.44494
C         -0.43302        5.08784        8.10993
H          0.33199        5.43716        7.41469
H         -1.17958        5.87646        8.20420
C         -1.06783        3.81943        7.53262
H         -1.54375        4.03637        6.57946
H         -1.81760        3.41241        8.20912
H         -0.30071        3.06530        7.37298
C         -0.53270        4.87897       10.65567
C         -1.96940        5.33210       10.69123
H         -2.48729        4.80154       11.49126
H         -2.47280        5.09906        9.75299
C         -2.06386        6.83475       10.96923
H         -3.10606        7.14206       11.01985
H         -1.56708        7.40673       10.18836
H         -1.58328        7.07090       11.91602
C          0.10926        4.59764       11.86452
O         -0.64065        4.59197       13.00334
Si        -1.30971        3.26590       13.72837
C         -0.00518        2.08332       14.46393
H          0.68537        1.73606       13.69937
H         -0.47634        1.20619       14.89607
H          0.58943        2.55459       15.24011
C         -2.27775        2.22731       12.44328
H         -3.25632        2.63884       12.21424
H         -2.43227        1.21288       12.79609
H         -1.72589        2.16353       11.50802
C         -2.43175        4.06173       15.06454
C         -3.50492        4.95474       14.43570
H         -3.04847        5.75717       13.86194
H         -4.12349        5.40247       15.21279
H         -4.15550        4.38147       13.77856
C         -1.60629        4.91166       16.03349
H         -1.13203        5.73770       15.50991
H         -0.83340        4.31612       16.51356
H         -2.24783        5.32672       16.81034
C         -3.12023        2.94761       15.85277
H         -3.71840        2.32055       15.19611
H         -3.77743        3.36899       16.61236
H         -2.38740        2.31780       16.35031
C          1.48430        4.19505       11.91056
C          2.24142        4.11117       13.13759
C          1.84101        4.75705       14.31939
H          0.94211        5.34790       14.32414
C          2.60326        4.69252       15.45964
H          2.27872        5.21217       16.34876
C          3.80011        3.97692       15.47173
H          4.38780        3.92010       16.37565
C          4.24298        3.37871       14.31959
H          5.18977        2.86039       14.30180
C          3.49225        3.45121       13.13625
C          3.99433        2.89591       11.91917
C          3.34795        3.10721       10.73628
O          3.89898        2.58325        9.57881
C          3.35483        1.33914        9.19987
H          3.87962        1.04509        8.29331
H          2.28285        1.41835        8.98668
H          3.51663        0.58320        9.97773
C          2.11634        3.84561       10.67871
C          5.30055        2.20210       11.88332
C          6.36207        2.89552       11.31888
O          6.08834        4.16055       10.90924
C          7.09789        4.93058       10.30493
H          6.62817        5.88616       10.07594
H          7.45721        4.46879        9.37949
H          7.94085        5.09601       10.98385
C          7.62355        2.27938       11.22680
H          8.45303        2.81089       10.78725
C          7.80555        1.00525       11.68957
H          8.77713        0.53860       11.61234
C          6.74958        0.27673       12.26861
C          6.91719       -1.03863       12.74929
H          7.89367       -1.49569       12.67343
C          5.86973       -1.72242       13.29823
H          6.00517       -2.72933       13.66457
C          4.60439       -1.11976       13.39018
H          3.78540       -1.67336       13.82613
C          4.40766        0.15258       12.93510
H          3.43467        0.61745       13.00925
C          5.47128        0.88877       12.36540
