109
CSD_code = RUXSIO | q = 0 | S = 0 | Stoichiometry = C41H61N3PSScSi | MND = 5
Sc         1.30720       12.03175        6.87880
S          1.02660       13.28215        4.62442
P          0.75030       11.36256        4.10321
Si         0.87521        8.53603        5.54918
N          3.34686       12.62731        7.44323
N          1.02206       11.54117        8.89609
N         -1.13033       13.05578        7.66531
C          5.24225       13.07192        8.96476
H          5.85525       13.06629        8.06754
H          5.69880       12.42577        9.71136
H          5.22651       14.08386        9.36858
C          3.82165       12.62888        8.67678
C          3.09503       12.26281        9.81378
H          3.64148       12.35962       10.74096
C          1.79602       11.76220        9.93648
C          1.34170       11.46338       11.35115
H          0.44228       12.02375       11.60364
H          2.11826       11.72723       12.06249
H          1.12615       10.40111       11.46173
C         -0.35757       11.13464        9.08584
H         -0.54196       10.66691       10.05951
H         -0.59797       10.40165        8.30793
C         -1.28432       12.35935        8.95712
H         -2.31545       12.02730        9.10740
H         -1.04647       13.04339        9.77759
C         -0.90680       14.50968        7.88454
H         -1.59704       14.87714        8.66590
C         -1.09817       15.36986        6.63345
H         -0.49477       14.98617        5.81272
H         -0.76875       16.38297        6.85365
H         -2.13399       15.42689        6.31441
C          0.53564       14.71523        8.35514
H          0.74448       14.20595        9.29510
H          0.73539       15.77618        8.49489
H          1.20709       14.32199        7.56656
C         -2.28038       12.78326        6.76949
H         -2.04533       13.27712        5.82223
C         -2.40738       11.29402        6.46147
H         -1.43505       10.89984        6.14279
H         -3.11556       11.15914        5.64700
H         -2.76654       10.72764        7.31783
C         -3.63370       13.30997        7.27437
H         -4.00629       12.72581        8.11320
H         -4.36053       13.22951        6.46999
H         -3.58348       14.35060        7.58133
C          4.23554       12.95009        6.37728
C          4.83688       11.90174        5.65374
C          5.71427       12.21581        4.62613
H          6.19928       11.42686        4.07466
C          5.97511       13.52999        4.28499
H          6.65352       13.75466        3.47486
C          5.36564       14.55276        4.98281
H          5.56772       15.57619        4.70606
C          4.51249       14.28636        6.04440
C          3.90034       15.43959        6.80887
H          3.36344       15.03614        7.67449
C          2.90452       16.19290        5.92262
H          2.39035       16.96156        6.49646
H          2.16893       15.50822        5.50460
H          3.42087       16.67364        5.09529
C          4.97227       16.40246        7.32902
H          5.44895       16.93548        6.51045
H          5.74347       15.86845        7.87922
H          4.52066       17.13849        7.99164
C          4.52841       10.46146        6.00599
H          3.45273       10.41137        6.28713
C          4.75119        9.49559        4.84267
H          5.81159        9.36353        4.63596
H          4.25635        9.85193        3.94242
H          4.33780        8.52290        5.09694
C          5.36479       10.00241        7.20590
H          6.42356       10.17200        7.01441
H          5.21220        8.93935        7.37908
H          5.08092       10.53482        8.10832
C          0.81241       10.39855        5.53705
C          1.56975        7.54174        4.06290
H          1.91417        6.56048        4.37707
H          2.40243        8.05018        3.58730
H          0.80678        7.39192        3.30478
C         -0.83651        7.70575        5.90047
H         -1.44991        7.60901        5.00910
H         -1.41209        8.26044        6.63676
H         -0.68789        6.70349        6.29145
C          1.90477        8.10906        7.12329
H          1.45023        7.29427        7.67765
H          1.96797        8.97241        7.79044
H          2.91682        7.80426        6.87844
C          1.89290       11.04620        2.69868
C          1.59467       10.03778        1.78837
H          0.65791        9.50426        1.87659
C          2.48414        9.73702        0.77510
H          2.24935        8.95492        0.06704
C          3.67480       10.43906        0.66390
H          4.36716       10.20311       -0.13132
C          3.97227       11.44597        1.56746
H          4.89465       12.00159        1.48002
C          3.08754       11.74521        2.58751
H          3.30696       12.53725        3.29131
C         -0.82716       11.34420        3.14718
C         -1.74414       10.31510        3.29294
H         -1.52192        9.50963        3.97641
C         -2.92051       10.32805        2.56416
H         -3.63197        9.52142        2.67421
C         -3.18688       11.37346        1.69549
H         -4.10819       11.38494        1.13094
C         -2.27208       12.40463        1.55022
H         -2.47932       13.22040        0.87244
C         -1.09324       12.38950        2.27109
H         -0.37038       13.18790        2.16864
