127
CSD_code = RUXTAH | q = 0 | S = 0 | Stoichiometry = C49H70N4PSScSi | MND = 5
Sc       -10.07130        0.68640       -3.40120
S        -11.18457        2.97446       -2.84056
P         -9.37343        3.18503       -2.00670
Si        -6.74435        1.58013       -1.29077
N        -11.68643       -0.11690       -4.51747
N         -9.74344       -1.23903       -2.60397
N        -10.43209       -3.15660        0.44406
N         -8.74245        1.26826       -4.74132
C        -12.22871       -1.77384       -6.26393
H        -12.80311       -2.61787       -5.88089
H        -11.61452       -2.13692       -7.08495
H        -12.92789       -1.02836       -6.63296
C        -11.35922       -1.22244       -5.15395
C        -10.24559       -2.00758       -4.81933
H        -10.00659       -2.78021       -5.53695
C         -9.51999       -2.05763       -3.62423
C         -8.50671       -3.18359       -3.54638
H         -7.59273       -2.85236       -3.05706
H         -8.25387       -3.51691       -4.54913
H         -8.90524       -4.03557       -2.99923
C         -9.35373       -1.66289       -1.26135
H         -8.82147       -0.84257       -0.76688
H         -8.70254       -2.53924       -1.26373
C        -10.63559       -2.04869       -0.47571
H        -11.03155       -1.17108        0.05114
H        -11.37525       -2.32829       -1.22891
C        -11.28888       -4.30956        0.18483
H        -11.03147       -5.06152        0.93317
C        -10.95571       -4.93289       -1.17190
H        -11.21721       -4.27809       -1.99929
H        -11.50517       -5.86428       -1.28917
H         -9.89181       -5.15141       -1.21782
C        -12.79584       -4.02729        0.29717
H        -13.02601       -3.55573        1.25019
H        -13.35135       -4.95983        0.23317
H        -13.13632       -3.37393       -0.50269
C        -10.32752       -2.72247        1.83752
H        -11.20579       -2.10522        2.11883
C         -9.07178       -1.86193        1.99821
H         -8.20268       -2.41611        1.65533
H         -8.93087       -1.59843        3.04375
H         -9.14304       -0.94135        1.43009
C        -10.23512       -3.88068        2.83185
H        -11.17381       -4.42026        2.92479
H         -9.98845       -3.48237        3.81334
H         -9.44915       -4.57089        2.53626
C        -12.92103        0.51487       -4.82277
C        -14.07474        0.10736       -4.13057
C        -15.29102        0.69004       -4.44629
H        -16.18536        0.39403       -3.92163
C        -15.37946        1.64635       -5.44119
H        -16.33819        2.07394       -5.69555
C        -14.23787        2.06866       -6.09225
H        -14.31808        2.83006       -6.85225
C        -12.99395        1.53127       -5.78762
C        -11.75036        2.05009       -6.47682
H        -10.87283        1.73850       -5.88235
C        -11.75173        3.57960       -6.54368
H        -12.50316        3.94725       -7.23888
H        -10.78087        3.93332       -6.88422
H        -11.95372        3.99649       -5.55950
C        -11.61297        1.47204       -7.88867
H        -11.47739        0.39443       -7.85914
H        -10.74990        1.91050       -8.38522
H        -12.50087        1.69351       -8.47901
C        -13.93934       -0.88470       -2.99541
H        -13.15942       -1.60955       -3.25976
C        -13.47334       -0.10950       -1.75675
H        -12.49102        0.34408       -1.95233
H        -13.39798       -0.76856       -0.89386
H        -14.17887        0.68689       -1.52675
C        -15.22050       -1.65900       -2.69108
H        -15.97394       -1.01329       -2.24668
H        -15.01007       -2.45873       -1.98299
H        -15.62825       -2.10321       -3.59647
C         -8.20218        1.92830       -2.44576
C         -6.11992       -0.13875       -1.89065
H         -6.85564       -0.62350       -2.52925
H         -5.91467       -0.79967       -1.05445
H         -5.20053       -0.04802       -2.46081
C         -5.19432        2.72392       -1.26621
H         -5.04688        3.27632       -2.18781
H         -4.30275        2.12529       -1.09982
H         -5.24691        3.44515       -0.45461
C         -7.11733        1.40901        0.57864
H         -7.30155        2.37099        1.04466
H         -6.25300        0.97075        1.06789
H         -7.96965        0.77685        0.79552
C         -9.71686        2.97026       -0.23004
C         -9.50786        3.95939        0.72122
H         -9.04166        4.89197        0.43699
C         -9.89054        3.74620        2.03464
H         -9.71875        4.51592        2.77286
C        -10.49651        2.55729        2.40224
H        -10.79887        2.39842        3.42662
C        -10.72459        1.57440        1.45183
H        -11.21056        0.65249        1.73802
C        -10.33588        1.78170        0.14272
H        -10.51080        1.02097       -0.62324
C         -8.94885        4.96959       -2.09941
C         -7.64980        5.36176       -1.80297
H         -6.92860        4.61277       -1.51454
C         -7.29420        6.69441       -1.88526
H         -6.28167        6.99621       -1.65958
C         -8.23427        7.63972       -2.26265
H         -7.95388        8.68047       -2.33408
C         -9.53175        7.25028       -2.55047
H        -10.26593        7.98743       -2.84150
C         -9.89170        5.91752       -2.47239
H        -10.89837        5.60057       -2.70362
C         -7.74477        1.95740       -3.93741
H         -6.78431        1.40264       -3.99118
C         -8.14972        0.65395       -5.90436
H         -7.32959       -0.03931       -5.63718
H         -7.72370        1.42403       -6.56880
H         -8.90494        0.09795       -6.46468
C         -7.47289        3.34903       -4.46574
C         -6.17529        3.83161       -4.58528
H         -5.34266        3.18985       -4.33102
C         -5.93792        5.11583       -5.04127
H         -4.92294        5.48040       -5.11596
C         -6.99465        5.92799       -5.41571
H         -6.80914        6.93017       -5.77403
C         -8.28742        5.43909       -5.34821
H         -9.11782        6.05592       -5.66081
C         -8.52335        4.16080       -4.87631
H         -9.53013        3.76970       -4.84227
