89
CSD_code = SAGBEK | q = 0 | S = 0 | Stoichiometry = C31H53MoN3Si | MND = 4
Mo         5.46445        1.66631        4.39160
Si         3.31708        0.17886        5.96986
N          4.00131        0.35459        4.38522
N          5.01424        3.26003        4.96675
N          6.46844        1.73737        2.96102
C          6.92870        0.99531        5.85271
H          6.57017        1.12912        6.88193
H          7.11330       -0.08200        5.72224
H          7.90692        1.48211        5.79818
C          3.96719       -1.36945        6.89675
H          3.67214       -1.33133        7.94058
H          5.05288       -1.42853        6.86624
H          3.57676       -2.29780        6.48911
C          1.40903        0.15869        6.08671
H          0.98949       -0.83264        5.94817
H          0.95184        0.82050        5.35777
H          1.10296        0.50231        7.06981
C          3.78778       -0.56982        3.27948
C          2.55607       -1.46738        3.45299
H          2.45664       -2.12237        2.58968
H          2.64678       -2.08664        4.34072
H          1.65673       -0.86374        3.53279
C          3.59290        0.25008        1.99211
H          3.35133       -0.40431        1.15647
H          2.77490        0.95950        2.12712
H          4.50488        0.80092        1.75409
C          5.03388       -1.46139        3.13645
H          4.93460       -2.13100        2.28422
H          5.91901       -0.83476        2.99010
H          5.16637       -2.06123        4.03715
C          4.75096        4.56799        5.07332
C          5.74540        5.46716        5.53781
C          5.46569        6.81881        5.58702
H          6.22048        7.51256        5.92383
C          4.22621        7.30855        5.20942
H          4.02722        8.36921        5.25195
C          3.24078        6.43251        4.79177
H          2.26992        6.82255        4.52221
C          3.47558        5.07189        4.71645
C          7.07772        4.89390        5.96419
H          6.87392        3.91229        6.41806
C          7.81344        5.75377        6.99080
H          8.66457        5.20434        7.38845
H          8.18946        6.66805        6.53765
H          7.15645        6.01623        7.81691
C          7.96411        4.66081        4.73427
H          8.93618        4.27572        5.03803
H          7.49127        3.93587        4.06605
H          8.11798        5.59517        4.19746
C          2.38054        4.11583        4.29967
H          2.84142        3.12681        4.12881
C          1.35995        3.98340        5.43429
H          0.55933        3.30164        5.15313
H          1.84210        3.60203        6.33154
H          0.92132        4.95255        5.66338
C          1.68743        4.54590        3.00652
H          0.99660        3.77233        2.67472
H          1.12071        5.46253        3.15174
H          2.42093        4.71487        2.22272
C          7.17604        2.09152        1.87106
C          8.43083        1.49239        1.60826
C          9.15190        1.87396        0.49201
H         10.11468        1.42316        0.30031
C          8.66309        2.82571       -0.38378
H          9.23718        3.11274       -1.25229
C          7.43546        3.41243       -0.13461
H          7.06355        4.16178       -0.81801
C          6.68123        3.07038        0.97347
C          5.35034        3.74291        1.22303
H          4.88883        3.28163        2.11533
C          4.40848        3.55321        0.03042
H          3.42068        3.94734        0.25925
H          4.78511        4.07492       -0.84612
H          4.30976        2.49829       -0.21667
C          5.55035        5.23013        1.52616
H          4.59424        5.71196        1.71836
H          6.17031        5.35006        2.41050
H          6.03070        5.73358        0.69001
C          8.98699        0.47097        2.57323
H          8.20467        0.25173        3.31306
C          9.36069       -0.83473        1.86962
H          9.66141       -1.58304        2.60074
H          8.51234       -1.22015        1.30770
H         10.18730       -0.68406        1.17991
C         10.18876        1.05285        3.32117
H         10.55975        0.34262        4.05797
H         10.99498        1.28520        2.62911
H          9.89908        1.96916        3.83143
H          3.79122        1.37986        6.72808
