42
CSD_code = SAMCER | q = 0 | S = 0 | Stoichiometry = C20H18FeO2Si | MND = 8
Fe         6.19568        2.35301        7.42275
Si         5.05391        3.84580        6.19569
C          6.51129        1.42027        5.98733
O          6.75378        0.74648        5.08839
C          4.70808        1.46374        7.62034
O          3.76709        0.81679        7.74165
C          6.23105        4.68002        4.92364
H          6.58132        3.95102        4.20107
H          7.10171        5.11363        5.40302
H          5.71735        5.46399        4.37706
C          7.06383        2.04900        9.43890
H          6.78908        1.30232       10.16594
C          6.54355        3.36909        9.36997
H          5.82997        3.80102       10.05230
C          7.28451        4.08203        8.40246
H          7.20181        5.13603        8.20022
C          8.20433        3.18592        7.81485
H          8.98228        3.45040        7.11698
C          8.08986        1.93565        8.48285
H          8.74248        1.08877        8.34713
C          3.49069        3.31518        5.23471
C          3.38501        2.05574        4.65618
H          4.20293        1.35831        4.76121
C          2.25188        1.68003        3.95774
H          2.19064        0.69504        3.51784
C          1.19538        2.56497        3.82481
H          0.30797        2.27386        3.28160
C          1.28219        3.82375        4.39390
H          0.46063        4.51909        4.29642
C          2.41915        4.19072        5.09104
H          2.47751        5.17216        5.53948
C          4.39834        5.14208        7.43388
C          3.51562        4.74124        8.43244
H          3.21369        3.70397        8.47420
C          3.02410        5.64189        9.35850
H          2.33716        5.31167       10.12493
C          3.41405        6.97066        9.30488
H          3.03388        7.67793       10.02785
C          4.29169        7.38730        8.31891
H          4.59699        8.42323        8.27033
C          4.77668        6.47805        7.39449
H          5.45744        6.81327        6.62563
