124
CSD_code = SATKIJ | q = 0 | S = 0 | Stoichiometry = C52H66Cl2HfO2Si | MND = 12
Hf         8.61525        2.86640        5.19032
Cl        10.12304        1.28300        4.42663
Si         8.61523        6.15295        5.19032
O          5.34326        5.66956        5.38830
C          7.87916        4.82189        4.03712
C          8.70305        4.02809        3.16578
C          7.98866        2.88097        2.75274
C          6.68856        2.93223        3.32394
C          5.56405        2.09010        3.15401
C          4.38625        2.48280        3.75007
C          4.28599        3.66226        4.49854
C          5.37249        4.48662        4.69047
C          6.61911        4.12616        4.12494
C         10.06515        4.35226        2.62066
C          5.66322        0.85255        2.36818
C          4.65133        0.50700        1.47532
C          4.73340       -0.65329        0.72526
C          5.85868       -1.46047        0.88093
C          6.87843       -1.14939        1.76758
C          6.76198        0.01687        2.51494
C          3.65295       -1.07789       -0.25926
C          4.25867       -1.15792       -1.66746
C          3.11104       -2.45392        0.15306
C          2.47647       -0.09890       -0.30169
C          8.11183       -2.02127        1.94542
C          8.09154       -3.26871        1.05730
C          9.35781       -1.19741        1.58937
C          8.19451       -2.47155        3.40871
C          4.10584        6.13123        5.86976
C          9.69305        7.38588        4.21063
H          8.31172        2.19342        1.98373
H          3.50828        1.86299        3.65288
H          3.32694        3.91350        4.92181
H          9.97301        5.02044        1.76186
H         10.55441        3.43790        2.28151
H         10.69714        4.83698        3.35846
H          3.81518        1.17877        1.37352
H          5.93022       -2.35771        0.29040
H          7.51908        0.27457        3.24400
H          3.49605       -1.44430       -2.38903
H          5.06092       -1.88917       -1.71264
H          4.66325       -0.19028       -1.95727
H          3.88926       -3.21140        0.12709
H          2.31451       -2.76191       -0.52149
H          2.71129       -2.41170        1.16413
H          1.73252       -0.45615       -1.01129
H          2.79973        0.88864       -0.62285
H          2.00013       -0.01890        0.67273
H          7.23362       -3.89803        1.28409
H          8.99158       -3.85361        1.23656
H          8.07127       -3.00043        0.00303
H         10.24398       -1.82751        1.62422
H          9.50346       -0.38024        2.28967
H          9.26585       -0.78710        0.58501
H          9.07258       -3.09474        3.56228
H          7.30941       -3.04381        3.67924
H          8.26581       -1.61742        4.07451
H          3.68644        5.45281        6.62032
H          3.38502        6.26388        5.05754
H          4.31087        7.09589        6.33168
H         10.40691        7.85680        4.87587
H          9.04851        8.16551        3.81641
H         10.24203        6.96361        3.38198
Cl         7.10778        1.28283        5.95460
O         11.88716        5.66948        4.99217
C          9.35133        4.82185        6.34345
C          8.52751        4.02812        7.21491
C          9.24187        2.88100        7.62793
C         10.54192        2.93217        7.05658
C         11.66647        2.09008        7.22657
C         12.84429        2.48282        6.63056
C         12.94452        3.66226        5.88202
C         11.85798        4.48653        5.68998
C         10.61135        4.12606        6.25551
C          7.16537        4.35227        7.75989
C         11.56729        0.85254        8.01244
C         12.57913        0.50702        8.90535
C         12.49706       -0.65327        9.65540
C         11.37179       -1.46045        9.49970
C         10.35207       -1.14938        8.61302
C         10.46854        0.01686        7.86564
C         13.57752       -1.07789       10.63992
C         12.97184       -1.15794       12.04812
C         14.11943       -2.45392       10.22756
C         14.75402       -0.09893       10.68232
C          9.11868       -2.02128        8.43514
C          9.13898       -3.26872        9.32326
C          7.87271       -1.19743        8.79122
C          9.03598       -2.47155        6.97185
C         13.12456        6.13125        4.51072
C          7.53744        7.38593        6.16995
H          8.91889        2.19351        8.39701
H         13.72227        1.86304        6.72778
H         13.90361        3.91358        5.45887
H          7.25741        5.02042        8.61872
H          6.67603        3.43791        8.09891
H          6.53352        4.83703        7.02201
H         13.41526        1.17882        9.00719
H         11.30026       -2.35771       10.09020
H          9.71144        0.27456        7.13658
H         13.73448       -1.44436       12.76966
H         12.16958       -1.88916       12.09331
H         12.56730       -0.19029       12.33799
H         13.34120       -3.21139       10.25358
H         14.91598       -2.76191       10.90209
H         14.51913       -2.41172        9.21648
H         15.49799       -0.45619       11.39189
H         14.43077        0.88860       11.00352
H         15.23031       -0.01891        9.70789
H          9.99691       -3.89801        9.09645
H          8.23895       -3.85365        9.14398
H          9.15925       -3.00047       10.37754
H          6.98653       -1.82752        8.75635
H          7.72707       -0.38023        8.09095
H          7.96466       -0.78714        9.79560
H          8.15790       -3.09472        6.81830
H          9.92107       -3.04382        6.70130
H          8.96467       -1.61742        6.30604
H         13.54399        5.45287        3.76016
H         13.84540        6.26395        5.32292
H         12.91945        7.09590        4.04881
H          6.82358        7.85682        5.50469
H          8.18199        8.16556        6.56416
H          6.98847        6.96364        6.99860
