64
CSD_code = SEQYES | q = 0 | S = 0 | Stoichiometry = C22H37BClHfPSi | MND = 12
Hf         2.56890        7.68913        5.93517
Cl         4.55496        6.50180        5.28859
C          2.83003        6.43975        8.03505
C          1.46935        6.86208        7.98796
C          1.44123        8.27339        8.16049
C          2.77620        8.73119        8.29068
C          3.63620        7.60488        8.19236
C          3.34864        5.03307        8.14199
C          0.23683        6.00253        8.00055
C          0.17053        9.06073        8.30688
C          3.23584       10.10929        8.67938
C          5.11779        7.60930        8.45041
B          1.30517        8.90734        4.60959
C          2.48082        8.48350        3.69690
C          3.60952        9.28594        4.04198
C          3.32474       10.10781        5.13255
C          1.97493        9.91973        5.56956
C         -0.05311        8.24821        4.76985
C         -1.18264        7.79202        4.87627
Si        -2.95668        7.29436        4.98710
C         -3.30487        6.31075        6.59188
C         -4.04136        8.86223        4.98922
C         -3.41171        6.20062        3.48740
P          1.54096        5.12945        4.87311
C          2.61500        3.63027        4.98007
C          1.61161        5.34942        3.04512
C         -0.10833        4.29745        4.94684
H          3.80205        4.88102        9.12331
H          2.54366        4.30954        8.03309
H          4.11119        4.82821        7.39002
H         -0.28396        6.11193        8.95427
H         -0.45800        6.29301        7.21072
H          0.48942        4.95079        7.88401
H         -0.42524        8.65726        9.12726
H          0.37635       10.10411        8.53064
H         -0.43588        9.01237        7.39990
H          3.56451       10.11184        9.72083
H          4.07649       10.43978        8.06873
H          2.43612       10.83882        8.58087
H          5.31769        7.50429        9.51969
H          5.60730        6.78456        7.93533
H          5.57346        8.54165        8.11772
H          2.51195        7.90620        2.77900
H          4.53677        9.31156        3.48258
H          3.99128       10.87886        5.50283
H          1.53859       10.60245        6.29036
H         -4.36616        6.09985        6.69118
H         -2.78328        5.35805        6.61329
H         -3.00338        6.87184        7.47146
H         -5.09929        8.62012        5.04334
H         -3.80525        9.49984        5.83573
H         -3.88044        9.44533        4.08788
H         -4.48759        6.07100        3.41138
H         -3.07075        6.65307        2.56131
H         -2.97010        5.21016        3.55054
H          2.34217        2.92060        4.20013
H          3.65236        3.93033        4.85334
H          2.50297        3.15233        5.94978
H          1.33696        4.42017        2.54624
H          0.91968        6.13536        2.74800
H          2.62475        5.62213        2.75606
H         -0.15981        3.49523        4.21255
H         -0.28226        3.88131        5.93525
H         -0.87947        5.03340        4.73524
