75
CSD_code = SEYWUQ | q = 0 | S = 0 | Stoichiometry = C29H41Cl2NSiZr | MND = 8
Zr         5.69824        8.80265        2.00623
Cl         5.79139        8.90419       -0.30617
Cl         7.95549        8.47144        2.43342
Si         3.21530        7.91927        3.45536
N          4.52252        7.26396        2.53693
C          3.89438        9.69449        3.28968
C          5.14072       10.07547        3.90603
C          5.83284        9.56445        5.01767
H          5.34840        8.81449        5.62624
C          7.09543       10.02089        5.35861
C          7.79411        9.32750        6.51719
C          9.27059        9.73266        6.59083
H          9.67739        9.42710        7.55747
H          9.82319        9.19891        5.81670
C          9.45924       11.22641        6.40028
H         10.50624       11.49112        6.56337
H          8.86512       11.76736        7.13953
C          9.03970       11.67454        4.99652
C          7.69638       11.07270        4.62408
C          7.06477       11.55464        3.48985
H          7.53172       12.32808        2.89450
C          5.82688       11.05002        3.08659
C          5.01288       11.26670        1.91658
C          5.18557       12.06542        0.77922
H          6.05051       12.71126        0.68982
C          4.24197       12.01583       -0.21967
H          4.37014       12.61606       -1.10826
C          3.10781       11.18805       -0.12017
C          2.90616       10.41135        1.00083
H          2.01605        9.80382        1.08177
C          3.84380       10.42345        2.05100
C          7.75113        7.80542        6.30515
H          6.75265        7.40168        6.44670
H          8.41335        7.31745        7.01752
H          8.08532        7.56371        5.29753
C          7.08120        9.67883        7.83027
H          6.03402        9.39009        7.79016
H          7.12551       10.74789        8.02139
H          7.55058        9.15831        8.66254
C         10.08039       11.23202        3.95752
H         10.09844       10.14958        3.86227
H         11.07217       11.57823        4.24155
H          9.84117       11.64217        2.97931
C          8.96168       13.20925        5.00956
H          8.83946       13.62023        4.01172
H          9.88051       13.61698        5.42641
H          8.12665       13.54270        5.62241
C          2.09469       11.19867       -1.23031
H          1.53981       10.25863       -1.23326
H          2.60389       11.29608       -2.19105
C          1.11691       12.36243       -1.05581
H          0.38637       12.37111       -1.86151
H          1.65052       13.31010       -1.06057
H          0.58990       12.27253       -0.10850
C          5.01808        5.90904        2.39815
C          5.79300        5.82429        1.06403
H          6.69288        6.45701        1.10228
H          5.14902        6.16112        0.24538
H          6.10163        4.79839        0.86727
C          5.98364        5.60637        3.56110
H          5.43192        5.56810        4.49779
H          6.73277        6.40314        3.62237
H          6.48473        4.65268        3.41171
C          3.87173        4.89044        2.38567
H          3.32773        4.93533        3.32490
H          4.25691        3.88328        2.24837
H          3.18511        5.12337        1.57608
C          3.01500        7.37669        5.29064
H          2.30129        6.56308        5.36761
H          2.64320        8.19054        5.90417
H          3.94641        7.03074        5.72700
C          1.49206        7.64923        2.65744
H          1.05242        6.72040        3.00517
H          1.55846        7.59287        1.57541
H          0.80498        8.44773        2.91541
