52
CSD_code = TEBVAZ | q = 0 | S = 0 | Stoichiometry = C18H29ClN2RuSi | MND = 9
Ru         0.72121        6.18476        5.74023
Cl         1.78426        5.36057        3.80651
N         -0.53238        7.16334        4.40254
N         -0.92246        5.12825        5.00967
C         -1.22592        6.07150        4.12892
C         -2.13932        5.91375        3.05162
C         -2.91962        5.75202        2.14130
Si        -4.07741        5.46924        0.71245
C         -3.55886        3.84709       -0.14066
H         -2.52376        3.89119       -0.46568
H         -4.17121        3.64187       -1.01428
H         -3.65326        3.00151        0.53428
C         -5.84297        5.33495        1.42039
H         -5.92748        4.50082        2.11066
H         -6.57482        5.18475        0.63182
H         -6.12034        6.23608        1.95937
C         -3.93716        6.95555       -0.47147
H         -4.19443        7.88398        0.02991
H         -4.60182        6.84693       -1.32401
H         -2.92598        7.05851       -0.85353
C         -0.51367        8.31990        3.54140
H         -0.91339        8.03533        2.55486
C         -1.39841        9.42099        4.13567
H         -2.42322        9.06805        4.22531
H         -1.38312       10.30079        3.49783
H         -1.03777        9.69473        5.12450
C          0.92755        8.79847        3.37315
H          1.31476        9.15978        4.32341
H          0.97595        9.60319        2.64430
H          1.54841        7.97209        3.03270
C         -1.32125        3.75204        4.82768
H         -1.35418        3.52340        3.74974
C         -0.28848        2.84591        5.49261
H          0.70391        3.09711        5.12086
H         -0.49672        1.80437        5.26254
H         -0.31325        2.98029        6.57180
C         -2.71685        3.53283        5.42227
H         -2.71338        3.78128        6.48121
H         -3.01372        2.49412        5.30334
H         -3.44107        4.16705        4.91625
C          0.19681        7.10174        7.72090
H         -0.71439        7.54683        8.10268
C          1.17660        7.90787        7.09588
H          1.00905        8.97558        7.00371
C          2.40822        7.35586        6.68926
H          3.18775        7.98842        6.28183
C          2.64997        5.97427        6.89131
H          3.61349        5.55608        6.61652
C          1.68888        5.16071        7.51770
H          1.91456        4.12609        7.74504
C          0.44450        5.72326        7.89755
H         -0.28419        5.11263        8.41976
