89
CSD_code = TEGHAR | q = 0 | S = 0 | Stoichiometry = C35H51NSiTi | MND = 6
Ti         5.31935        2.13366        4.26173
Si         3.08986        3.81518        4.57115
N          3.74817        2.70112        3.40523
C          6.97116        1.76391        3.07790
H          6.86323        1.07669        2.22688
H          7.74834        1.32913        3.72878
H          7.38368        2.70354        2.68214
C          4.92235        0.19230        4.84009
H          3.87923        0.10852        5.17575
H          5.56547       -0.04980        5.69959
H          5.08758       -0.58556        4.08291
C          5.92655        4.25462        5.04879
C          4.67922        3.80005        5.60090
C          5.03118        2.85445        6.62063
C          4.22875        2.11670        7.50675
H          3.16061        2.25748        7.46501
C          4.80077        1.25601        8.42175
C          6.20490        1.14594        8.47376
H          6.65910        0.48209        9.19380
C          7.02726        1.86943        7.64056
H          8.10295        1.77760        7.71989
C          6.46057        2.72651        6.69748
C          7.02469        3.61166        5.71791
C          8.33353        3.94390        5.36790
H          9.17019        3.49830        5.89073
C          8.55157        4.84478        4.35002
H          9.57067        5.08767        4.08925
C          7.49255        5.45160        3.64395
C          6.19156        5.15966        4.00467
H          5.35517        5.64443        3.52418
C          7.82942        6.39856        2.50005
C          6.58232        6.96526        1.81492
H          5.97259        6.16751        1.39556
H          6.88380        7.62236        1.00108
H          5.98283        7.54739        2.51098
C          8.63834        5.63234        1.44275
H          9.56771        5.24854        1.85427
H          8.88097        6.28608        0.60721
H          8.05867        4.79141        1.06489
C          8.65557        7.57510        3.03790
H          8.09454        8.10707        3.80348
H          8.88905        8.27025        2.23372
H          9.59014        7.23624        3.47597
C          3.97052        0.40632        9.37364
C          4.26091       -1.07548        9.09267
H          4.02162       -1.31393        8.05794
H          3.65792       -1.70774        9.74158
H          5.30716       -1.31388        9.26311
C          2.46465        0.63155        9.20846
H          2.19793        1.66480        9.41786
H          1.92456       -0.00340        9.90849
H          2.13840        0.37593        8.20280
C          4.34481        0.74617       10.82297
H          5.39288        0.54071       11.02175
H          3.74582        0.15643       11.51429
H          4.16193        1.80071       11.01919
C          1.53320        3.11126        5.44935
H          0.64823        3.26776        4.84085
H          1.35869        3.59996        6.40197
H          1.62793        2.04314        5.62464
C          2.60337        5.58144        3.97528
H          3.05664        5.83419        3.02179
H          2.90832        6.33636        4.69309
H          1.52784        5.66349        3.85599
C          3.32124        2.43458        2.05460
C          3.52510        0.94211        1.72909
H          4.58038        0.68724        1.89124
H          2.91747        0.34778        2.41896
C          3.12772        0.65106        0.28202
H          3.28534       -0.41261        0.06955
C          3.99043        1.49041       -0.65989
H          3.72602        1.27497       -1.69756
H          5.04421        1.23781       -0.52125
C          3.76955        2.97338       -0.36528
H          4.38183        3.57575       -1.04657
C          4.16833        3.27433        1.07818
H          4.00803        4.33293        1.29882
H          5.22775        3.04587        1.24989
C          2.29453        3.32127       -0.56592
H          2.13228        4.38312       -0.36796
H          2.00351        3.12512       -1.60023
C          1.44180        2.47899        0.38205
H          0.38456        2.73266        0.24295
C          1.65399        0.99766        0.07723
H          1.03349        0.38851        0.73799
H          1.35922        0.78329       -0.95242
C          1.84035        2.77096        1.82850
H          1.23532        2.17724        2.51612
H          1.67240        3.82444        2.05255
