23
CSD_code = TENBOF | q = 0 | S = 0 | Stoichiometry = C7H10Cl4SiTi | MND = 8
Ti         3.12647        2.53814       12.72970
Cl         2.96328        4.16993       10.17798
Cl         4.22122        1.54308       14.34340
Cl         4.15001        4.39793       13.07901
Si         1.15750        3.16217        9.97691
Cl         4.21236        1.46007       11.21031
C          1.05082        2.61237       11.77934
C          1.07340        3.51032       12.88462
H          0.89322        4.57838       12.83203
C          1.19259        1.30206       12.30773
H          1.13454        0.38431       11.73514
C          1.37095        1.68913        8.79320
H          0.50233        1.03819        8.80047
H          2.24191        1.09877        9.07148
H          1.51596        2.03149        7.77328
C         -0.20002        4.40004        9.48334
H          0.02391        4.83868        8.51674
H         -0.28704        5.21130       10.19987
H         -1.16705        3.91456        9.41067
C          1.26636        1.39169       13.71059
H          1.30175        0.55862       14.40009
C          1.20289        2.75602       14.07020
H          1.16143        3.14305       15.08110
