46
CSD_code = TERXAQ | q = 0 | S = 0 | Stoichiometry = C18H24O2SiW | MND = 10
W          2.13912        5.56188        4.99241
Si         4.00508        4.65307        3.43377
O          1.63046        5.94553        1.92128
O          3.13745        8.53338        5.10323
C          1.87538        5.81581        3.04409
C          2.78690        7.43698        5.06069
C          0.43160        4.00435        5.19117
C          0.29251        4.87894        6.32350
C          1.45821        4.76185        7.12165
C          2.30403        3.77784        6.51007
C          1.65109        3.28956        5.33604
C         -0.65745        3.67816        4.21038
C         -0.95516        5.61227        6.71065
C          1.64922        5.35782        8.48634
C          3.49147        3.12990        7.15848
C          2.02956        2.05183        4.57731
C          5.01926        6.00046        2.57414
C          5.70036        6.96064        3.31687
C          6.40966        7.97386        2.69952
C          6.44726        8.05020        1.31702
C          5.77539        7.10487        0.56164
C          5.07191        6.09154        1.18787
H          0.94348        6.67838        4.80875
H          3.62799        5.67104        5.68438
H          3.61761        3.69024        2.36879
H          4.97535        3.85020        4.22025
H         -1.26988        4.55239        3.99473
H         -1.30809        2.90032        4.61684
H         -0.24254        3.31625        3.27057
H         -0.72622        6.52913        7.25071
H         -1.55832        4.97627        7.36278
H         -1.55415        5.86847        5.83945
H          2.70557        5.48945        8.71515
H          1.21555        4.70238        9.24574
H          1.16339        6.32936        8.56040
H          4.22285        2.81076        6.41785
H          3.16511        2.24821        7.71488
H          3.98287        3.80719        7.85423
H          1.71077        2.10775        3.53838
H          1.54479        1.18479        5.03297
H          3.10423        1.88672        4.59322
H          5.67101        6.91181        4.39714
H          6.93069        8.70936        3.29576
H          6.99634        8.84392        0.83110
H          5.79939        7.15905       -0.51764
H          4.55022        5.35771        0.59076
