121
CSD_code = TEVSIZ | q = 0 | S = 0 | Stoichiometry = C49H64N4O2SiTi | MND = 6
Ti         5.53332        4.75368       11.25568
Si         5.23936        7.37209        9.17089
O          6.25017        3.06262       12.40578
O          5.01227        3.49355        9.87436
N          7.52218        4.50202       11.33447
N          3.65231        3.93426       11.53764
N          5.35306        5.70635       13.19052
N          5.33518        6.23936       10.41187
C          8.66634        4.91259       10.63735
C          9.36818        6.03764       11.10111
C         10.49870        6.45987       10.42004
H         11.04406        7.32351       10.77012
C         10.94033        5.78819        9.29579
H         11.82675        6.12201        8.77706
C         10.23202        4.69817        8.82828
H         10.56970        4.19582        7.93451
C          9.09523        4.24117        9.47992
C          8.29724        3.10542        8.88083
H          7.49672        2.81510        9.57163
C          7.61843        3.61393        7.60637
H          6.98165        4.45902        7.86249
H          7.00224        2.83287        7.16567
H          8.35636        3.93164        6.87243
C          9.16010        1.87281        8.60266
H          9.88533        2.07163        7.81730
H          8.53253        1.04473        8.27917
H          9.69809        1.56789        9.49822
C          8.87748        6.79386       12.31498
H          8.01082        6.25332       12.72158
C          8.41094        8.18690       11.88704
H          9.23720        8.75275       11.46315
H          8.02039        8.73681       12.74127
H          7.63186        8.08787       11.13410
C          9.94537        6.88205       13.40796
H         10.81491        7.43489       13.06142
H         10.27082        5.88892       13.71210
H          9.54376        7.39176       14.28201
C          7.38540        3.33559       11.92771
C          8.48839        2.34402       12.08269
C          8.15588        0.99298       12.02537
H          7.12268        0.71820       11.86849
C          9.13398        0.02589       12.15754
H          8.87044       -1.02020       12.10137
C         10.45235        0.39968       12.36137
H         11.21926       -0.35430       12.46191
C         10.78544        1.74191       12.44097
H         11.81135        2.03471       12.60960
C          9.81089        2.71424       12.30222
H         10.07748        3.75769       12.37061
C          3.87207        3.29471       10.41867
C          2.88328        2.45279        9.69992
C          3.35029        1.55940        8.73776
H          4.41520        1.49536        8.56512
C          2.46326        0.77714        8.02396
H          2.83122        0.08146        7.28416
C          1.10118        0.88916        8.25310
H          0.40658        0.27961        7.69400
C          0.62980        1.78926        9.19510
H         -0.43233        1.88480        9.36683
C          1.51335        2.56868        9.91975
H          1.14146        3.27081       10.65057
C          2.70412        3.68201       12.51877
C          2.59126        2.41150       13.12361
C          1.69832        2.25218       14.17353
H          1.59965        1.28331       14.64043
C          0.92808        3.30096       14.63679
H          0.23243        3.14726       15.44846
C          1.05591        4.54789       14.05389
H          0.45444        5.36642       14.41874
C          1.93752        4.75973       13.00647
C          2.03759        6.12480       12.36254
H          2.94487        6.15186       11.73517
C          0.81098        6.36423       11.47583
H          0.77262        5.64362       10.66349
H          0.85021        7.36101       11.04421
H         -0.10331        6.27608       12.06107
C          2.13598        7.24212       13.40662
H          1.16556        7.44713       13.85409
H          2.48959        8.15590       12.93524
H          2.82739        6.97182       14.20126
C          3.42969        1.22476       12.69896
H          4.07109        1.51507       11.86097
C          2.54348        0.06453       12.23696
H          1.96678       -0.33646       13.06715
H          3.15652       -0.73731       11.82988
H          1.85158        0.39255       11.46446
C          4.35404        0.77533       13.83578
H          5.11198        1.53276       14.02165
H          4.86025       -0.14786       13.55915
H          3.79829        0.59895       14.75399
C          5.16067        5.01512       14.30999
H          5.01359        3.94667       14.20375
C          5.14763        5.60592       15.56604
H          4.98227        5.00312       16.44532
C          5.35039        6.97299       15.66423
H          5.35572        7.46315       16.62675
C          5.53094        7.69666       14.49449
H          5.67253        8.76563       14.52152
C          5.51410        7.02699       13.28015
H          5.61511        7.53562       12.32601
C          3.96358        6.79746        7.82302
C          4.48989        5.53958        7.13852
H          4.70332        4.77883        7.89050
H          5.40236        5.75011        6.58504
H          3.75348        5.13986        6.43727
C          3.68495        7.86581        6.76788
H          2.98755        7.49170        6.01560
H          4.60181        8.15991        6.26148
H          3.24708        8.75158        7.22238
C          2.65867        6.43132        8.52212
H          1.93033        6.02880        7.81450
H          2.22354        7.30466        9.00087
H          2.86134        5.67867        9.28606
C          6.94278        7.67505        8.32398
H          7.64431        6.90312        8.62800
H          7.36262        8.63380        8.61047
H          6.88014        7.65923        7.24118
C          4.65702        9.08470        9.84063
H          3.69725        9.00950       10.34231
H          4.56090        9.81592        9.04572
H          5.37135        9.47976       10.55733
