82
CSD_code = TIJGOK | q = 0 | S = 0 | Stoichiometry = C35H38FeO7Si | MND = 7
Fe         9.89574        1.65394        2.09308
C          8.81278        0.63166        3.02490
O          8.10521       -0.07111        3.59227
C         11.28806        1.02676        2.99025
O         12.17266        0.55065        3.54162
C         10.03761        0.64568        0.62973
O         10.22008       -0.05250       -0.25852
C          8.36892        2.98585        1.50245
H          7.31663        2.80026        1.71380
C          9.10471        3.57750        2.59192
H          8.63890        3.88056        3.52118
C         10.46299        3.80531        2.29880
C         10.87917        3.24290        1.04278
H         11.95408        3.28593        0.87406
C         10.07694        3.63037       -0.19038
H         10.28071        2.92141       -0.99470
H         10.40752        4.61605       -0.53219
C          8.57131        3.64142        0.14092
H          8.23477        4.67960        0.24508
O         11.39207        4.35660        3.10788
C         11.07574        4.49949        4.47692
H         11.98726        4.84427        4.96106
H         10.77173        3.53705        4.90409
H         10.28201        5.23627        4.63122
C          7.74510        3.01755       -0.95994
C          7.33962        3.77253       -2.05518
C          6.53805        3.18983       -3.03309
H          6.22401        3.79882       -3.86547
C          6.13225        1.87164       -2.95158
C          6.56929        1.09432       -1.85807
C          7.36184        1.68101       -0.88891
H          7.67663        1.10498       -0.03448
C          7.64313        5.24334       -2.15093
H          8.70135        5.44642       -1.96122
H          7.39500        5.61659       -3.14907
O          6.91226        5.96608       -1.18242
Si         5.34403        6.43392       -1.26701
C          5.13360        7.51241       -2.82231
C          5.11222        8.90337       -2.81194
H          5.16265        9.42995       -1.87141
C          5.02449        9.63488       -3.98348
H          5.00589       10.71479       -3.94381
C          4.96234        8.98658       -5.20441
H          4.89585        9.55491       -6.12073
C          4.98274        7.60279       -5.24132
H          4.93182        7.08569       -6.18926
C          5.06462        6.88199       -4.06412
H          5.05988        5.80188       -4.10513
C          4.12003        4.99043       -1.46654
C          2.97562        5.10627       -2.25326
H          2.76061        6.04761       -2.73907
C          2.11482        4.03776       -2.43132
H          1.23835        4.15047       -3.05417
C          2.37710        2.82448       -1.81729
H          1.71334        1.98515       -1.96492
C          3.49579        2.69541       -1.01252
H          3.70634        1.75369       -0.52716
C          4.35094        3.76830       -0.83925
H          5.22507        3.65210       -0.21727
C          5.08934        7.26564        0.44321
C          6.16856        8.30672        0.74021
H          6.02781        8.72414        1.73769
H          6.14036        9.12472        0.02593
H          7.15420        7.85140        0.69262
C          3.71156        7.92404        0.49141
H          3.53529        8.37054        1.46994
H          2.93178        7.18814        0.30737
H          3.62042        8.70429       -0.25958
C          5.14921        6.19682        1.53756
H          5.02093        6.65417        2.51897
H          6.10882        5.68585        1.52123
H          4.36223        5.45894        1.40124
O          5.31722        1.24567       -3.84380
C          4.70965        2.02414       -4.84357
H          4.04425        1.34768       -5.37767
H          5.44624        2.43051       -5.54538
H          4.12443        2.84330       -4.41130
O          6.14352       -0.19698       -1.83761
C          6.58845       -1.02995       -0.79521
H          6.15568       -2.00827       -0.99800
H          6.24249       -0.67801        0.18274
H          7.67975       -1.11285       -0.78197
