65
CSD_code = TITXEC | q = 0 | S = 0 | Stoichiometry = C24H32Cl2NO3PRuSi | MND = 9
Ru         3.98994        5.43612        9.80403
Cl         2.87765        6.99396       11.17750
Cl         2.06610        4.08062        9.91351
P          4.43191        4.71478       11.91731
O          0.31319        4.79352       17.91255
O         -0.73347        2.81636       16.65477
O          1.02351        2.41663       18.73689
N          3.11831        4.44167       12.89214
H          2.26314        4.29977       12.35504
Si         0.63611        3.28305       17.41980
C          6.01558        5.04195        8.91506
H          6.87390        4.49435        9.29173
C          5.07478        4.38120        8.10086
H          5.19745        3.33101        7.86405
C          4.00147        5.11509        7.54389
H          3.29309        4.61142        6.89391
C          3.88534        6.49562        7.76640
H          3.09337        7.06339        7.29361
C          4.83519        7.14811        8.58710
H          4.76239        8.21914        8.74190
C          5.91660        6.43955        9.13472
H          6.68521        6.96321        9.69060
C          5.38153        3.14758       11.92930
C          4.95503        2.18151       11.02269
H          4.13643        2.42080       10.35258
C          5.55684        0.93727       10.99575
H          5.22306        0.18968       10.29118
C          6.58729        0.65005       11.87748
H          7.06256       -0.31963       11.85645
C          7.00269        1.60340       12.79238
H          7.79775        1.37486       13.48721
C          6.40001        2.84941       12.82534
H          6.72201        3.58793       13.54604
C          5.46062        5.86269       12.87174
C          6.80559        6.01530       12.54900
H          7.23985        5.39577       11.77432
C          7.57863        6.94337       13.22130
H          8.62414        7.05882       12.97269
C          7.00983        7.72867       14.21206
H          7.61450        8.45564       14.73423
C          5.66756        7.58827       14.52537
H          5.22499        8.20943       15.28993
C          4.88988        6.66175       13.85440
H          3.83654        6.55634       14.06493
C          3.22461        3.58919       14.07052
H          4.17056        3.82462       14.56868
H          3.23827        2.52328       13.80552
C          2.05700        3.86971       15.01317
H          1.12485        3.62739       14.49977
H          2.03685        4.93591       15.23898
C          2.16608        3.06981       16.30870
H          3.07012        3.37154       16.83591
H          2.29612        2.01553       16.06122
C         -0.26042        5.85490       17.19210
H          0.50476        6.37070       16.60865
H         -0.69145        6.54860       17.91477
H         -1.03879        5.49389       16.52066
C         -1.00656        1.60103       16.00889
H         -0.40796        1.50496       15.10052
H         -2.06484        1.59817       15.74570
H         -0.79081        0.75330       16.66247
C          0.35013        2.36893       19.96908
H          0.23216        3.37335       20.37631
H          0.95001        1.76283       20.64843
H         -0.63768        1.91831       19.85141
