62
CSD_code = TOSYEF | q = 1 | S = 0 | Stoichiometry = C21H36Cl2NSiTi(1+) | MND = 12
Ti         0.80609        7.13766        3.05141
Cl         3.02412        6.77192        2.86340
Cl         0.70810        5.39296        4.47152
Si        -1.62190        7.64943        5.86432
N          2.62816        2.30785        2.07535
H          3.40202        2.74181        1.55865
C         -0.48279        5.52592        1.79432
H         -0.98768        4.65671        2.19333
C         -1.05616        6.80906        1.67266
H         -2.08165        7.05656        1.90769
C         -0.14358        7.62876        0.96590
H         -0.34906        8.61598        0.57655
C          1.00323        6.86437        0.69546
H          1.85565        7.18050        0.10837
C          0.79871        5.55603        1.20350
C          1.76798        4.41688        1.02122
H          2.77222        4.81284        1.20828
H          1.72219        4.08381       -0.02123
C          1.48066        3.26023        1.97856
H          1.27335        3.67370        2.96941
H          0.59776        2.71517        1.65187
C          2.36437        0.99608        1.38225
H          3.28420        0.41490        1.47596
C          2.11745        1.22640       -0.10348
H          1.17327        1.72884       -0.29214
H          2.07979        0.26357       -0.60574
H          2.92348        1.80106       -0.55481
C          1.22516        0.21921        2.02757
H          1.19607       -0.77700        1.59476
H          0.25785        0.67919        1.84828
H          1.36359        0.11195        3.09884
C          3.13539        2.19207        3.49639
H          2.26535        2.00484        4.13011
C          3.78633        3.51128        3.88852
H          3.11538        4.36172        3.80397
H          4.67098        3.70122        3.28401
H          4.10024        3.45795        4.92651
C          4.15044        1.06700        3.66111
H          3.71325        0.07759        3.56668
H          4.57061        1.13485        4.66083
H          4.97276        1.16975        2.95603
C          1.14438        8.32289        4.99116
H          1.61822        7.92479        5.88184
C          1.78495        9.10327        4.00631
H          2.82871        9.39288        4.00255
C          0.81045        9.51557        3.07859
H          0.98015       10.19859        2.25618
C         -0.44183        9.03598        3.52643
H         -1.40137        9.30811        3.10875
C         -0.25337        8.28109        4.70815
C         -2.70243        6.38998        4.91136
H         -3.27972        6.86990        4.12559
H         -3.41262        5.92145        5.58497
H         -2.10571        5.59823        4.46282
C         -0.81803        6.85718        7.39832
H         -0.22169        7.57829        7.95010
H         -0.17643        6.01985        7.13871
H         -1.58147        6.48566        8.07422
C         -2.65750        9.17667        6.33344
H         -2.05573        9.93070        6.83043
H         -3.45443        8.89424        7.01232
H         -3.11633        9.64192        5.46681
