71
CSD_code = TUNNEV | q = 0 | S = 0 | Stoichiometry = C25H41ClFNSiZr | MND = 8
Zr         2.59405        0.80745        2.28735
Cl         1.67514       -1.25777        2.93160
Si         5.15221       -0.00943        0.78290
F          2.07735        0.69518        0.47472
N          4.63492        0.93502        2.13641
C          2.32982        2.73661        3.74461
C          2.05011        3.18016        2.41220
C          0.84564        2.56164        1.98371
C          0.39345        1.70975        3.01908
C          1.29187        1.82716        4.11570
C          3.34466        3.35148        4.67437
C          2.79635        4.21066        1.60929
C          0.14133        2.81798        0.68146
C         -0.86316        0.88558        2.98328
C          1.04858        1.21206        5.46855
C          5.49879        1.38585        3.13824
C          5.48075        0.76823        4.41152
C          6.39890        1.13943        5.37910
C          7.33426        2.12724        5.13137
C          7.32397        2.77271        3.91163
C          6.41904        2.43234        2.91616
C          4.46610       -0.32107        4.68016
C          4.05669       -0.44715        6.14915
C          5.00486       -1.67270        4.19541
C          6.41891        3.22325        1.62837
C          6.39601        4.73315        1.90023
C          7.64276        2.89639        0.76961
C          4.04125       -1.57659        0.61666
C          4.94456        0.95980       -0.86616
C          6.95249       -0.65015        0.97785
H          2.93574        4.26091        5.12380
H          4.26161        3.61712        4.14990
H          3.61462        2.67270        5.48195
H          2.12622        5.02404        1.32441
H          3.20431        3.77361        0.69205
H          3.61253        4.63453        2.18606
H         -0.61396        3.59810        0.80441
H         -0.35899        1.91620        0.32785
H          0.84642        3.14022       -0.08403
H         -1.74392        1.51854        3.11524
H         -0.85730        0.13585        3.77245
H         -0.95898        0.37129        2.02412
H          0.06074        1.50052        5.83243
H          1.78119        1.55696        6.19411
H          1.08054        0.12005        5.42310
H          6.39734        0.64614        6.33836
H          8.05684        2.39608        5.88687
H          8.04040        3.55869        3.72673
H          3.55667       -0.06804        4.08159
H          3.18112       -1.08780        6.22662
H          3.82267        0.52180        6.58323
H          4.85282       -0.90078        6.73534
H          5.41273       -1.58421        3.19256
H          4.20853       -2.41517        4.19632
H          5.80135       -2.01049        4.85657
H          5.51333        2.94876        1.07738
H          5.69803        4.98481        2.69543
H          6.10593        5.27071        1.00005
H          7.37976        5.08804        2.19791
H          7.65626        1.84674        0.49936
H          8.55702        3.12244        1.31454
H          7.63119        3.49305       -0.14063
H          4.50166       -2.28760       -0.06499
H          3.06764       -1.32737        0.19675
H          3.87610       -2.09634        1.55937
H          4.97857        0.27500       -1.70771
H          5.71145        1.70989       -1.02803
H          3.97533        1.45474       -0.89004
H          7.52851       -0.49608        0.07242
H          6.97606       -1.71335        1.19350
H          7.46093       -0.14059        1.78961
