123
CSD_code = TUQMID | q = 0 | S = 0 | Stoichiometry = C48H67BN3O2ScSi | MND = 8
Sc         7.32958        2.30307        3.49638
Si         7.22608       -0.70024        3.03237
N          6.78211        0.43697        4.27128
N          3.58247        4.89874        5.76680
N          5.58642        5.06041        6.81367
O          6.50948        3.80623        3.93818
O          9.13350        2.43419        4.72786
B          4.97307        4.92631        5.53471
C          7.78721        0.65034        1.82849
C          9.06107        1.27562        1.87037
C          8.94641        2.59830        1.37847
C          7.57990        2.81777        1.03612
C          6.86085        1.62323        1.31671
C          5.47482        1.33869        0.80053
H          5.53387        1.01818       -0.24390
H          4.84721        2.22934        0.83666
H          4.99544        0.54671        1.36827
C          7.06134        3.98110        0.23405
H          7.01287        3.71443       -0.82530
H          7.71439        4.84557        0.33421
H          6.05913        4.26743        0.55336
C         10.06126        3.53453        0.98728
H         11.03469        3.13776        1.27083
H          9.94973        4.52049        1.44253
H         10.06521        3.67153       -0.09640
C         10.34596        0.56648        2.20372
H         11.19563        1.05019        1.72258
H         10.29843       -0.45845        1.84320
H         10.53928        0.52949        3.27727
C          8.58888       -1.92426        3.60015
H          9.38335       -1.43031        4.14823
H          9.03249       -2.44085        2.75622
H          8.16405       -2.67788        4.25539
C          5.82679       -1.81939        2.34133
H          5.93004       -2.83325        2.71419
H          5.84684       -1.86811        1.25801
H          4.84667       -1.46230        2.64155
C          6.09392        0.19490        5.42048
C          5.76239        1.28022        6.26053
H          6.07156        2.28000        5.94213
C          5.04030        1.09557        7.41995
H          4.77450        1.94862        8.02961
C          4.63708       -0.17362        7.80738
H          4.07072       -0.31568        8.71549
C          4.96765       -1.25589        7.00592
H          4.65846       -2.25125        7.29562
C          5.67862       -1.08293        5.83792
H          5.91973       -1.93229        5.21753
C          2.47986        4.81194        4.88174
C          2.05975        3.56021        4.42183
C          0.97872        3.50031        3.55268
H          0.64744        2.54370        3.17890
C          0.31456        4.64754        3.16447
H         -0.53083        4.58341        2.49503
C          0.73292        5.87783        3.63286
H          0.20720        6.76906        3.32517
C          1.82096        5.98146        4.48861
C          2.27746        7.33917        4.97006
H          3.18144        7.20993        5.57148
C          2.62916        8.24236        3.78615
H          3.34631        7.74594        3.13630
H          3.06735        9.17253        4.14182
H          1.74572        8.48341        3.20048
C          1.20865        7.98935        5.85129
H          0.28971        8.14888        5.29241
H          1.55930        8.95140        6.21890
H          0.98349        7.35515        6.70581
C          2.76980        2.29751        4.84492
H          3.45740        2.53521        5.65931
C          3.59508        1.74585        3.67893
H          2.97589        1.63923        2.79012
H          3.99851        0.77079        3.94522
H          4.43503        2.41434        3.45231
C          1.79338        1.23826        5.36097
H          1.17935        0.83728        4.55850
H          1.13741        1.66000        6.11976
H          2.35357        0.41854        5.80527
C          3.38932        5.05492        7.13282
H          2.40245        5.08255        7.55270
C          4.57751        5.15396        7.75945
H          4.75074        5.36259        8.79515
C          6.96932        5.15739        6.98198
C          7.69536        5.72035        5.90661
C          9.04503        5.97630        6.08670
H          9.60902        6.47931        5.31674
C          9.69390        5.63690        7.26289
H         10.73962        5.87648        7.39294
C          9.00135        4.97507        8.25309
H          9.52208        4.67052        9.14840
C          7.64242        4.70487        8.12755
C          6.96610        3.92610        9.23641
H          5.95141        3.67379        8.92712
C          7.66992        2.59356        9.51163
H          7.62011        1.94829        8.63746
H          7.16881        2.08472       10.33240
H          8.71195        2.73277        9.78787
C          6.90210        4.76565       10.51651
H          7.90137        4.94644       10.90577
H          6.32561        4.24791       11.28047
H          6.43804        5.73197       10.32716
C          6.99648        6.10170        4.60870
C          7.95010        6.18006        3.41238
H          8.70945        6.94935        3.53247
H          7.37128        6.41988        2.52225
H          8.42370        5.20770        3.25597
C          6.33873        7.47495        4.80590
H          7.10354        8.22698        4.99301
H          5.65492        7.46567        5.65062
H          5.78229        7.75929        3.91589
C         10.34098        3.19934        4.58829
H         10.11861        4.25636        4.77397
H         10.69168        3.07136        3.56309
C         11.34518        2.67055        5.62834
H         11.58568        3.45116        6.34881
H         12.26928        2.33195        5.16479
C         10.59113        1.52717        6.31078
H         10.82102        1.44186        7.36951
H         10.80782        0.57464        5.82604
C          9.13949        1.92030        6.06335
H          8.44451        1.07889        6.10558
H          8.83096        2.71171        6.76023
C          5.91254        5.02703        4.25768
H          5.37519        5.39517        3.35999
