83
CSD_code = UFAPUP | q = 0 | S = 0 | Stoichiometry = C27H51HfN3Si | MND = 10
Hf         8.21383        9.03119       19.44398
Si        10.12565       11.36671       19.48594
N          9.87660        9.93203       18.56676
N          8.40652        6.51209       18.67596
N          6.67890        9.36487       17.97501
C          9.19416        6.05422       20.98779
H          9.78571        5.20188       20.65708
H          8.31026        5.67893       21.50394
H          9.78491        6.62291       21.70268
C          4.77170        7.89383       18.57423
H          4.55477        7.65153       17.53437
H          4.00821        8.58384       18.93430
H          4.69537        6.98174       19.16596
C          8.74241        6.95009       19.83132
C          6.13555        8.52522       18.79592
C          8.87864        9.81933       21.58905
C         10.18168        9.35833       22.18923
H         10.71536       10.21060       22.60891
H         10.83179        8.89123       21.44574
H         10.01057        8.65007       22.99827
C          7.57965        9.37276       21.94214
C          7.19918        8.34605       22.97415
H          6.71162        8.82788       23.82424
H          8.06875        7.81050       23.34659
H          6.49866        7.61752       22.56280
C          6.64321       10.22084       21.29766
C          5.16224       10.20173       21.54465
H          4.92401       10.70347       22.48594
H          4.78903        9.18057       21.60882
H          4.62656       10.71690       20.74999
C          7.35303       11.16784       20.53400
C          6.71974       12.35591       19.86778
H          6.31893       13.03841       20.62163
H          5.88995       12.06064       19.22500
H          7.44725       12.90030       19.27625
C          8.74731       10.95674       20.72278
C         11.81195       11.65191       20.37130
H         12.49305       12.18341       19.71435
H         12.29961       10.73021       20.66741
H         11.68949       12.25968       21.26182
C          9.92081       13.01377       18.51346
H         10.84765       13.25589       18.00354
H          9.69785       13.84029       19.17996
H          9.14236       12.96653       17.75984
C         10.82263        9.30226       17.66279
C         11.74552       10.31887       16.97695
H         11.15185       11.08260       16.48260
H         12.37091        9.82359       16.23718
H         12.38430       10.80061       17.70982
C         11.68771        8.29492       18.44649
H         11.04187        7.56258       18.93197
H         12.26185        8.81982       19.20569
H         12.37984        7.77807       17.78469
C         10.04307        8.53932       16.57653
H          9.25439        7.94735       17.05007
H         10.70838        7.88044       16.02055
H          9.60099        9.24305       15.87467
C          8.36514        5.12948       18.17458
C          7.63287        4.14611       19.09995
H          6.75017        4.62465       19.51916
H          8.26178        3.79599       19.91200
H          7.31336        3.27798       18.52662
C          9.77799        4.62717       17.84916
H         10.26688        5.31904       17.16788
H          9.72125        3.64889       17.37631
H         10.39045        4.54093       18.74262
C          7.56937        5.22863       16.86263
H          6.56277        5.57974       17.07409
H          7.51139        4.26120       16.36908
H          8.04496        5.93816       16.19132
C          6.18106        9.90057       16.68365
C          7.10904       11.08563       16.37073
H          6.81759       11.95499       16.95456
H          7.06311       11.34688       15.31534
H          8.13310       10.82391       16.63730
C          4.73445       10.41299       16.73967
H          4.55529       10.94077       17.67414
H          4.01013        9.60939       16.65108
H          4.56789       11.10731       15.91792
C          6.32868        8.84412       15.58033
H          5.74483        7.95466       15.79965
H          7.36927        8.54779       15.48431
H          5.98802        9.25289       14.63067
