83
CSD_code = UFAPID | q = 0 | S = 0 | Stoichiometry = C27H51N3SiTi | MND = 9
Ti        -2.05490       10.92632       16.94086
Si        -4.68901        9.88862       16.75500
N         -3.82328       11.30257       16.26141
N         -1.26085       12.43558       17.57371
N         -0.49456       11.24930       14.41579
C          1.18963       11.98940       17.24559
H          1.91815       11.81481       16.45777
H          0.97582       11.04441       17.74251
H          1.62798       12.68139       17.96330
C          0.15678       13.99020       16.14821
H          0.82329       13.96025       15.29171
H          0.64552       14.58477       16.91606
H         -0.76561       14.48553       15.85705
C         -0.11557       12.56211       16.65431
C         -0.68039       11.56906       15.61121
C          0.39283       11.66484       13.33534
C         -2.42485        9.17168       18.48079
C         -3.06812        9.15304       19.84088
H         -4.13377        9.35004       19.77239
H         -2.62044        9.87646       20.52601
H         -2.94264        8.16248       20.28881
C         -1.02971        9.06520       18.26959
C          0.00341        8.84595       19.34337
H          0.93693        9.37492       19.14715
H          0.24104        7.78011       19.40512
H         -0.36528        9.15572       20.31973
C         -0.82152        8.83970       16.88138
C          0.47418        8.46781       16.21981
H          1.32790        8.68492       16.85978
H          0.59468        9.00491       15.27799
H          0.48392        7.39693       15.99861
C         -2.08956        8.77863       16.25495
C         -2.26649        8.45039       14.80262
H         -1.74775        9.18677       14.18423
H         -3.31782        8.43267       14.53173
H         -1.84055        7.46659       14.58655
C         -3.10229        8.96395       17.23852
C         -5.93133       10.26113       18.18354
H         -6.21897        9.35445       18.70629
H         -6.84004       10.69122       17.77443
H         -5.54176       10.96733       18.91116
C         -5.80121        8.88435       15.54438
H         -5.90616        7.85782       15.88191
H         -5.42562        8.85528       14.52748
H         -6.79707        9.31496       15.50875
C         -4.27593       12.27258       15.28784
C         -4.09857       11.69694       13.87002
H         -4.30581       12.45506       13.11726
H         -4.77447       10.86097       13.71701
H         -3.07069       11.34800       13.76385
C         -5.74962       12.64491       15.51350
H         -6.05663       13.42293       14.81802
H         -5.88716       13.00525       16.53033
H         -6.38399       11.77652       15.36475
C         -3.42887       13.54968       15.37842
H         -3.80443       14.30475       14.68922
H         -2.40210       13.30053       15.11549
H         -3.45477       13.95007       16.39072
C         -0.15581       12.94765       12.69768
H          0.43253       13.20644       11.81996
H         -0.12805       13.78015       13.39380
H         -1.18840       12.79241       12.39429
C          1.86810       11.82769       13.72130
H          2.46672       11.95306       12.82081
H          2.21609       10.93733       14.24205
H          2.03217       12.69269       14.35643
C          0.29358       10.52982       12.30078
H          0.85523       10.77722       11.40318
H         -0.74631       10.36620       12.03070
H          0.68936        9.60604       12.71619
C         -1.45381       13.10724       18.84355
C         -0.56006       12.51587       19.95765
H         -0.88116       12.88264       20.93095
H          0.48019       12.79681       19.81955
H         -0.63456       11.43007       19.94406
C         -1.26278       14.63606       18.83031
H         -1.68273       15.05624       19.74228
H         -1.77356       15.07901       17.97945
H         -0.21179       14.90699       18.79510
C         -2.92447       12.82715       19.22147
H         -3.13774       13.17078       20.23280
H         -3.11829       11.75281       19.15059
H         -3.59107       13.34057       18.52843
