130
CSD_code = UHOPUE | q = 0 | S = 0 | Stoichiometry = C63H60N4NbPSi | MND = 5
Nb         3.69061        8.33013        4.75016
P          1.76959        8.22788        6.54331
Si         6.24748        8.49606        2.36555
N          2.05153        8.94722        3.67467
N          3.70185        6.34485        5.27181
N          4.36771        9.61261        6.20735
N          4.99825        8.40707        3.52116
C          0.15693        8.90326        6.02268
C         -0.72102        9.55279        6.88237
H         -0.44876        9.70665        7.91792
C         -1.94441        9.99792        6.41334
H         -2.62545       10.50257        7.08259
C         -2.29622        9.78327        5.09189
H         -3.25831       10.11303        4.72911
C         -1.41444        9.15426        4.22820
H         -1.70385        8.99052        3.20005
C         -0.17372        8.72564        4.67323
C          0.85970        8.11868        3.74408
H          1.14434        7.12392        4.12868
H          0.42589        7.95163        2.74734
C          2.00028       10.11175        2.94097
C          0.92807       10.49193        2.11958
H          0.05671        9.86393        2.02798
C          0.95853       11.66639        1.38754
C          2.07096       12.49316        1.45638
H          2.09487       13.40606        0.87943
C          3.15068       12.14965        2.25942
C          3.10219       10.98421        3.00365
H          3.96068       10.71970        3.62276
C         -0.19759       12.04274        0.50751
H          0.10127       12.00755       -0.53986
H         -0.52727       13.05765        0.72440
H         -1.03745       11.36650        0.64864
C          4.37444       13.01339        2.31404
H          5.14824       12.59322        1.67144
H          4.77787       13.05243        3.32347
H          4.15613       14.02366        1.97547
C          1.31923        6.55814        7.12305
C          0.02708        6.19180        7.48098
H         -0.77917        6.90857        7.40044
C         -0.22500        4.91221        7.94336
H         -1.22933        4.62922        8.22193
C          0.81283        4.00343        8.05807
H          0.62106        3.00974        8.43460
C          2.09794        4.36009        7.68320
H          2.89837        3.64091        7.78098
C          2.36548        5.62974        7.19570
C          3.73664        6.03562        6.69107
H          4.06581        6.93505        7.23972
H          4.47400        5.25137        6.91565
C          3.64765        5.30462        4.37084
C          3.45895        5.61486        3.01148
H          3.35962        6.65796        2.70906
C          3.44701        4.63379        2.03600
C          3.58439        3.30189        2.40485
H          3.56637        2.52764        1.65186
C          3.74827        2.95816        3.73936
C          3.78045        3.94858        4.70599
H          3.92837        3.64784        5.73073
C          3.31032        5.02261        0.59493
H          2.94309        4.19100       -0.00218
H          4.28196        5.32503        0.20410
H          2.63831        5.87029        0.48291
C          3.89984        1.51528        4.12402
H          3.03792        0.94024        3.78782
H          3.99301        1.40167        5.20148
H          4.78578        1.09094        3.65308
C          2.07576        9.12020        8.10397
C          1.58200        8.70573        9.33540
H          1.01764        7.78572        9.40863
C          1.80881        9.47331       10.46402
H          1.42562        9.14999       11.42055
C          2.51242       10.66103       10.36006
H          2.67055       11.27294       11.23564
C          3.02423       11.06452        9.13773
H          3.56866       11.99590        9.07070
C          2.83500       10.29234        8.00199
C          3.45712       10.64798        6.66458
H          2.65170       10.76035        5.91772
H          3.96031       11.62446        6.72819
C          5.59887        9.50545        6.81593
C          6.08500       10.38624        7.79181
H          5.49186       11.22226        8.12478
C          7.34199       10.22408        8.35332
C          8.14953        9.17509        7.94344
H          9.13113        9.05125        8.37702
C          7.70181        8.28360        6.97506
C          6.43842        8.44085        6.43613
H          6.10394        7.74120        5.66931
C          7.82622       11.20474        9.38134
H          8.23039       12.09085        8.89055
H          8.61364       10.76892        9.99149
H          7.01264       11.52205       10.03115
C          8.57849        7.16711        6.49384
H          9.05018        7.45076        5.55301
H          7.99509        6.26891        6.30476
H          9.35966        6.94278        7.21648
C          7.06595       10.20874        2.48070
C          7.67254       10.82434        1.39232
H          7.67596       10.32220        0.43471
C          8.26334       12.07029        1.51551
H          8.73070       12.53571        0.65852
C          8.25654       12.72229        2.73705
H          8.71903       13.69443        2.83504
C          7.65134       12.12381        3.83021
H          7.64297       12.62870        4.78663
C          7.06018       10.88041        3.69897
H          6.58133       10.40892        4.54782
C          7.53334        7.14134        2.72237
C          7.11957        5.95263        3.31477
H          6.07385        5.83632        3.56746
C          8.01957        4.93612        3.57856
H          7.67789        4.01623        4.03313
C          9.35800        5.09547        3.25836
H         10.06509        4.30391        3.46341
C          9.78738        6.27650        2.67664
H         10.83197        6.40718        2.42929
C          8.88009        7.28802        2.41181
H          9.22198        8.20995        1.96200
C          5.51348        8.24240        0.63010
C          4.19387        8.61244        0.39186
H          3.61775        9.02843        1.20808
C          3.62324        8.45383       -0.85793
H          2.59768        8.75315       -1.02586
C          4.36588        7.91301       -1.89489
H          3.92377        7.78647       -2.87322
C          5.67815        7.53140       -1.67152
H          6.26025        7.10496       -2.47698
C          6.24381        7.69658       -0.41883
H          7.26746        7.39238       -0.24897
