67
CSD_code = UQUDAM | q = 0 | S = 0 | Stoichiometry = C21H39ClHfN2P2Si | MND = 12
C          7.95978       11.76153        0.77881
H          8.35909       12.50822        0.10789
C          8.71756       10.78836        1.46050
H          9.78731       10.65362        1.37573
C          7.81695        9.90096        2.09628
H          8.08284        8.96410        2.56331
C          6.50822       10.33482        1.80523
H          5.59600        9.80680        2.03348
C          6.59647       11.48962        1.00196
H          5.76445       11.95556        0.49269
C          9.52641       11.51550        4.55696
H         10.37355       11.58693        3.87778
C          9.04171       10.30120        5.12971
H          9.26618        9.30938        4.76647
C          8.36415       10.60935        6.29692
H          7.89283        9.90505        6.95987
C          8.43662       11.99748        6.51151
H          8.02922       12.51518        7.36249
C          9.14301       12.57159        5.46887
H          9.49195       13.59468        5.41416
C          4.11500        9.49062        6.77905
H          3.70240       10.39540        7.21288
H          4.95985        9.19579        7.39324
H          3.36693        8.70704        6.84823
C          5.83186        8.25307        4.58960
H          5.43823        7.36881        5.08048
H          6.83092        8.42684        4.97590
H          5.91303        8.02894        3.53163
C          3.18671        9.69545        3.77590
H          3.24108       10.49136        3.03678
H          2.25244        9.81464        4.31503
H          3.13902        8.74816        3.24780
C          2.15938       13.39313        3.21361
H          1.46202       12.62206        3.56031
H          2.47903       13.11079        2.20569
C          1.43054       14.73303        3.15660
H          1.00280       14.98493        4.12342
H          0.62310       14.67622        2.43090
H          2.10860       15.52776        2.85882
C          3.12702       13.65799        5.46248
H          2.81742       14.69890        5.61992
H          4.08555       13.50833        5.96670
C          2.09543       12.73148        6.10072
H          1.08673       12.96043        5.76517
H          2.12803       12.85192        7.18076
H          2.32590       11.69805        5.85669
C          6.05717       14.74430        1.97449
H          6.77462       15.56251        2.07915
H          6.45285       14.06628        1.20905
C          4.72651       15.29234        1.46863
H          4.02171       14.47860        1.31781
H          4.88432       15.79307        0.51574
H          4.29573       16.00377        2.16517
C          6.33436       14.86151        4.41737
H          7.38977       15.16105        4.33755
H          6.22598       14.24061        5.31634
C          5.49020       16.12296        4.58804
H          5.71106       16.85179        3.81242
H          5.72127       16.57494        5.54984
H          4.43185       15.88374        4.56310
N          3.35165       13.42585        4.04703
N          6.00755       14.01859        3.25717
Si         4.69077        9.74452        4.97132
P          5.75786       11.72292        4.99889
P          4.74854       12.72822        3.37358
Cl         9.03706       13.99613        2.63335
Hf         7.65574       12.12305        3.33712
