103
CSD_code = UZORUX | q = 0 | S = 0 | Stoichiometry = C37H60BNP2RuSi | MND = 6
Ru         3.38339        6.97883        1.35902
H          2.02271        7.24149        0.66672
P          2.79174        8.86754        2.51995
P          3.14545        4.94411        0.33549
Si         2.09583        5.93253        3.02846
N          6.65831        6.92234        0.45313
H          7.33611        6.43303        1.01339
H          7.03073        7.20913       -0.43666
C          2.62027        5.05820        4.69045
H          3.12764        5.73312        5.36909
H          3.26574        4.20531        4.51811
H          1.72911        4.69839        5.19225
C          0.89256        7.27225        3.70935
C          1.24645        8.59955        3.45526
C          0.45006        9.63906        3.92593
H          0.69740       10.66960        3.71518
C         -0.68861        9.36733        4.66381
H         -1.30435       10.18017        5.02329
C         -1.03235        8.05584        4.94101
H         -1.91704        7.84062        5.52401
C         -0.24231        7.02413        4.46420
H         -0.51893        6.00504        4.68557
C          1.15107        4.48819        2.17480
C          1.66473        4.06546        0.94685
C          1.06613        3.01203        0.26215
H          1.43752        2.69101       -0.70041
C         -0.03208        2.36435        0.79988
H         -0.49483        1.54975        0.26008
C         -0.53101        2.76040        2.02843
H         -1.38351        2.25051        2.45521
C          0.06270        3.81309        2.70321
H         -0.33324        4.11261        3.66115
C          3.95129        9.52008        3.84925
H          4.90245        9.70883        3.32548
C          4.17188        8.39320        4.85571
H          3.22282        8.17936        5.35549
H          4.47854        7.48534        4.32614
C          5.22285        8.77386        5.89345
H          5.35063        7.95717        6.60738
H          6.18358        8.93847        5.39778
C          4.80654       10.04651        6.62318
H          3.87805        9.86216        7.16830
H          5.57168       10.33253        7.34841
C          4.58827       11.17530        5.62196
H          5.53077       11.39614        5.11340
H          4.27196       12.08124        6.14441
C          3.53078       10.78761        4.58845
H          2.58307       10.60828        5.09974
H          3.39955       11.61918        3.89356
C          2.41697       10.42536        1.55727
H          2.10094       11.21345        2.25039
C          3.65835       10.89904        0.80435
H          4.47034       11.11671        1.50435
H          3.99266       10.09774        0.13704
C          3.34675       12.14500       -0.02111
H          4.23995       12.46234       -0.56541
H          3.05869       12.95994        0.64855
C          2.20896       11.86944       -0.99929
H          1.98319       12.77189       -1.57205
H          2.51830       11.09384       -1.70382
C          0.96717       11.39856       -0.24810
H          0.62085       12.19567        0.41535
H          0.16389       11.18103       -0.95506
C          1.28351       10.15220        0.57234
H          1.58565        9.33863       -0.09386
H          0.39589        9.81661        1.11453
C          2.89449        4.90158       -1.51601
H          2.76788        3.86154       -1.83842
C          4.10076        5.49814       -2.23733
H          5.00634        4.93312       -1.99719
H          4.24038        6.52731       -1.89298
C          3.87989        5.49763       -3.74822
H          4.74447        5.93947       -4.25046
H          3.78215        4.46707       -4.10015
C          2.61643        6.27506       -4.10438
H          2.45792        6.25333       -5.18502
H          2.73784        7.31837       -3.80408
C          1.40879        5.68328       -3.38375
H          1.24773        4.65801       -3.72780
H          0.51283        6.25958       -3.62325
C          1.63557        5.68622       -1.87537
H          1.75051        6.71440       -1.52044
H          0.77277        5.25809       -1.35929
C          4.48997        3.64858        0.56074
H          5.40405        4.12497        0.17207
C          4.65992        3.43131        2.06262
H          4.78805        4.39821        2.55945
H          3.74564        2.97743        2.45514
C          5.84994        2.52458        2.35949
H          6.76988        3.00127        2.00944
H          5.94143        2.37363        3.43734
C          5.67876        1.18192        1.65663
H          6.54621        0.54515        1.84476
H          4.79713        0.67618        2.05646
C          5.50220        1.39271        0.15689
H          5.35774        0.43029       -0.33955
H          6.40792        1.84660       -0.25487
C          4.30449        2.29916       -0.12785
H          3.39895        1.82204        0.25133
H          4.20679        2.42180       -1.20814
B          5.34451        7.12912        0.84424
H          5.00314        6.81965        2.03624
H          4.58928        7.82357        0.12704
