112
CSD_code = VEJROU | q = 0 | S = 0 | Stoichiometry = C40H65FeN2P3Si | MND = 6
Fe         3.77645       10.61950       20.50562
P          4.34699       12.47330       21.53565
P          4.38338        8.67086       19.70023
P          1.58580       10.55758       20.60891
Si         4.31685        9.67302       22.47448
N          3.54550       11.34237       19.01791
N          3.35564       11.83101       18.02267
C          3.31387        8.95857       23.96773
C          5.53649       10.87543       23.34673
C          6.34207       10.58614       24.43642
C          7.29047       11.48789       24.88552
C          7.44760       12.70131       24.23785
C          6.61564       13.03411       23.18351
C          5.65328       12.12948       22.74792
C          3.20290       13.47613       22.63383
C          2.57028       12.51156       23.62886
C          1.50551       13.19958       24.47535
C          2.11614       14.38443       25.21612
C          2.75086       15.35247       24.22369
C          3.82114       14.65323       23.38511
C          5.08632       13.83185       20.50271
C          4.07954       14.59415       19.64105
C          4.79064       15.73069       18.90842
C          5.92380       15.18504       18.04471
C          6.92172       14.40976       18.90019
C          6.21193       13.27803       19.63564
C          5.54083        8.24188       22.09001
C          6.32729        7.55800       23.00313
C          7.28061        6.64596       22.58624
C          7.46418        6.41115       21.23427
C          6.65116        7.03990       20.30783
C          5.68222        7.94096       20.73567
C          5.13365        8.64272       17.99998
C          6.24682        9.68059       17.90486
C          6.95971        9.57498       16.56112
C          5.96014        9.76174       15.42335
C          4.84154        8.72876       15.52080
C          4.12637        8.83647       16.86649
C          3.25227        7.17973       19.59416
C          3.87015        5.86424       19.12665
C          2.79636        4.77630       19.08950
C          2.15554        4.59153       20.46092
C          1.55236        5.90699       20.94284
C          2.62626        6.98817       20.96909
C          0.45179        9.85107       21.88445
C          0.78415        9.80139       19.13663
C          0.80572       12.21822       20.44898
H          5.23314       10.70265       20.36275
H          4.00248        8.53053       24.68423
H          2.74823        9.72575       24.48103
H          2.62958        8.17600       23.66621
H          6.22706        9.64474       24.94927
H          7.91684       11.24226       25.73167
H          8.20647       13.39868       24.56434
H          6.74320       13.99550       22.70712
H          2.42384       13.86614       21.96627
H          2.14095       11.67070       23.07827
H          3.35204       12.11250       24.28099
H          0.69272       13.55332       23.83431
H          1.08151       12.48893       25.18855
H          1.35018       14.89789       25.80134
H          2.88095       14.02135       25.90637
H          1.97692       15.75500       23.56428
H          3.20081       16.19154       24.75904
H          4.61372       14.29374       24.04448
H          4.25038       15.37861       22.69217
H          5.52307       14.54644       21.21349
H          3.63292       13.92503       18.90411
H          3.27781       15.00623       20.25934
H          4.07431       16.27064       18.28496
H          5.19723       16.43717       19.63790
H          5.50637       14.51797       17.28727
H          6.42868       16.00580       17.53022
H          7.71476       14.00052       18.27068
H          7.38534       15.08546       19.62431
H          6.91655       12.71682       20.25674
H          5.79344       12.58550       18.90521
H          6.19226        7.73062       24.05906
H          7.88995        6.12602       23.31222
H          8.22757        5.72258       20.89979
H          6.79717        6.82465       19.25904
H          5.58265        7.64717       17.88175
H          5.81549       10.67694       18.00249
H          6.95183        9.54404       18.73048
H          7.74338       10.33303       16.49851
H          7.43564        8.59438       16.47288
H          5.52850       10.76309       15.48595
H          6.46719        9.67228       14.45994
H          4.12430        8.87940       14.71074
H          5.26318        7.72538       15.41103
H          3.33761        8.08180       16.92009
H          3.66053        9.81974       16.94259
H          2.46764        7.46133       18.87907
H          4.30082        5.96453       18.12912
H          4.66153        5.56435       19.81649
H          2.02589        5.05078       18.36358
H          3.24373        3.83619       18.75929
H          1.38464        3.81949       20.41129
H          2.91570        4.26365       21.17348
H          0.74308        6.20351       20.26882
H          1.12659        5.78026       21.94099
H          3.40759        6.70742       21.68039
H          2.21217        7.94295       21.30154
H         -0.51191       10.35771       21.82223
H          0.30389        8.78826       21.70109
H          0.86096        9.97372       22.88408
H          1.21697       10.22713       18.23172
H          0.94890        8.72686       19.13682
H         -0.28908        9.99715       19.15774
H          0.76093       12.69765       21.42403
H          1.39960       12.83160       19.77182
H         -0.20696       12.11857       20.05527
