109
CSD_code = VETCAY | q = 0 | S = 0 | Stoichiometry = C54H51P2ReSi | MND = 9
Re         1.58862        4.15100        4.86301
P          1.98379        2.40538        3.06888
P          1.44086        2.42812        6.67730
Si         1.33596        7.20918        4.80052
C          0.74070        1.11398        2.72060
C         -0.15128        0.72289        3.70737
C         -1.08187       -0.27115        3.46357
C         -1.12700       -0.87992        2.22197
C         -0.24102       -0.49155        1.22774
C          0.69019        0.49924        1.47055
C          2.03667        3.21039        1.42863
C          3.20120        3.42590        0.70459
C          3.15282        4.13105       -0.48612
C          1.95087        4.62717       -0.95894
C          0.78512        4.41264       -0.23971
C          0.82720        3.71096        0.94800
C          3.52703        1.43504        3.05649
C          4.71889        2.13139        3.25035
C          5.92944        1.46647        3.22354
C          5.96248        0.09764        3.01268
C          4.77975       -0.60144        2.84498
C          3.56414        0.05856        2.87169
C          2.39967        0.90831        6.37844
C          1.81526       -0.32664        6.12154
C          2.61183       -1.42946        5.86937
C          3.99103       -1.31427        5.87662
C          4.57924       -0.08224        6.11348
C          3.78890        1.02504        6.34612
C          2.10530        2.99403        8.29078
C          1.65318        4.22914        8.74869
C          2.07280        4.72174        9.96897
C          2.93987        3.97918       10.75329
C          3.37475        2.74078       10.31352
C          2.95979        2.24411        9.09014
C         -0.13161        1.76274        7.34415
C         -0.08614        0.79963        8.35043
C         -1.25712        0.30187        8.88589
C         -2.48378        0.76469        8.43329
C         -2.53359        1.73491        7.44875
C         -1.36139        2.23543        6.90790
C          2.51353        7.89127        3.46829
C          2.48868        7.38372        2.16989
C          3.32690        7.88348        1.19181
C          4.20910        8.90870        1.49146
C          4.24395        9.42837        2.77426
C          3.40489        8.92362        3.75176
C         -0.41308        7.85561        4.39947
C         -1.54936        7.05370        4.44507
C         -2.80264        7.57441        4.17697
C         -2.94368        8.91383        3.85704
C         -1.82308        9.72618        3.80184
C         -0.57237        9.20108        4.06850
C          1.81618        7.79857        6.54720
C          0.86878        8.35641        7.40358
C          1.20290        8.72162        8.69547
C          2.49408        8.53474        9.15878
C          3.44963        7.98339        8.32047
C          3.11208        7.61862        7.03135
H          0.13495        3.43342        4.56172
H          2.71755        4.88371        3.88536
H          2.33345        4.95545        6.09350
H          0.83613        4.83345        3.55202
H          0.43041        4.80933        5.86304
H          3.08398        3.51634        5.18717
H         -0.12602        1.21084        4.67423
H         -1.77226       -0.56439        4.24215
H         -1.85359       -1.65454        2.02442
H         -0.27724       -0.96535        0.25719
H          1.38154        0.79986        0.69431
H          4.14743        3.04382        1.06062
H          4.06377        4.29416       -1.04426
H          1.91996        5.18088       -1.88601
H         -0.15604        4.79903       -0.60335
H         -0.08013        3.54985        1.51743
H          4.69147        3.19957        3.42859
H          6.84820        2.01717        3.36763
H          6.90824       -0.42404        2.98758
H          4.79984       -1.67096        2.69191
H          2.64965       -0.50431        2.75089
H          0.73974       -0.43800        6.13203
H          2.14848       -2.38587        5.67230
H          4.60836       -2.18160        5.69434
H          5.65517        0.01586        6.11197
H          4.24652        1.99241        6.51744
H          0.97934        4.81452        8.13590
H          1.72527        5.68879       10.30178
H          3.27506        4.36246       11.70600
H          4.04496        2.15307       10.92498
H          3.31536        1.27577        8.76498
H          0.86893        0.44192        8.71089
H         -1.21469       -0.44871        9.66219
H         -3.39763        0.37152        8.85435
H         -3.48601        2.10660        7.09923
H         -1.40669        2.99897        6.14295
H          1.81096        6.57735        1.92765
H          3.29395        7.46903        0.19392
H          4.86738        9.30023        0.72901
H          4.92910       10.22945        3.01389
H          3.43920        9.33586        4.75021
H         -1.44156        6.00731        4.69003
H         -3.67331        6.93500        4.21773
H         -3.92185        9.32366        3.64955
H         -1.92614       10.77227        3.55035
H          0.29769        9.84030        4.02220
H         -0.14209        8.50375        7.05089
H          0.45265        9.15070        9.34493
H          2.75543        8.81595       10.16923
H          4.45864        7.83319        8.67775
H          3.85803        7.17641        6.38681
