44
CSD_code = VIFMAZ | q = 0 | S = 0 | Stoichiometry = C14H25Cl2NSiTi | MND = 8
Ti         8.54271       -0.62345        4.76237
Cl         6.89545       -1.96762        4.28547
Cl         9.99580       -2.07595        5.47793
Si         8.09934        2.08006        5.66983
C          8.76396        1.47049        3.99612
C         10.04943        0.84616        3.97931
C         10.06227       -0.17263        2.99849
C          8.76535       -0.23285        2.43010
C          7.96554        0.76480        3.05179
C         11.26025       -0.96623        2.56952
H         11.03673       -2.03379        2.52851
H         12.08333       -0.81498        3.26710
H         11.58507       -0.65029        1.57559
C          8.33157       -1.10451        1.29009
H          8.31011       -0.52627        0.36300
H          7.33047       -1.50038        1.46545
H          9.01756       -1.93909        1.15492
C          6.55425        1.08498        2.65478
H          6.48579        1.18648        1.57014
H          6.23471        2.01814        3.11082
H          5.87025        0.28891        2.96056
C          6.46409        3.07448        5.61894
H          5.60928        2.44088        5.40444
H          6.50724        3.85361        4.86508
H          6.28416        3.55966        6.57211
C          9.42111        3.16183        6.54015
H          9.07613        3.49745        7.51273
H          9.63711        4.04738        5.95150
H         10.35355        2.62458        6.68569
C          7.73157       -0.04465        7.54708
C          6.74673        0.87442        8.28224
H          7.16285        1.87297        8.38137
H          6.53981        0.48332        9.27525
H          5.81504        0.93625        7.72576
C          9.07170       -0.06871        8.30390
H          9.79890       -0.65861        7.74324
H          8.94400       -0.50837        9.29014
H          9.45299        0.94338        8.41557
C          7.13788       -1.46363        7.51856
H          6.20771       -1.46515        6.94690
H          6.92423       -1.79794        8.53213
H          7.84103       -2.16821        7.06424
N          7.96345        0.42549        6.19328
H         10.91851        1.18623        4.53302
