87
CSD_code = VIQGOT | q = 0 | S = 0 | Stoichiometry = C35H45Cl2O2PSiZr | MND = 10
Zr         3.93270        7.01313       11.64213
Cl         5.39125        8.06039       13.19760
P          2.15443        8.67765       12.97309
Cl         5.03888        4.92456       11.79993
O          3.24447        6.02805       13.83982
O          2.17445        6.30185       11.30136
C          0.42913       10.42089       11.66109
H          0.24956        9.57048       11.01767
C          2.32400        8.67051       14.80245
C          0.73072        7.57411       12.67907
C          5.52982        7.19116        9.69414
C          5.57161        8.48818       10.25494
C         -0.05929        5.57453       11.53468
C          4.27363        9.05546       10.17135
C          0.98164        6.47670       11.82965
C          4.20384        6.95784        9.22525
C          4.22219        5.90994       14.89766
H          4.33707        6.88599       15.37247
H          5.18004        5.59918       14.45852
C          0.86401       12.58784       13.31687
H          1.03619       13.43224       13.96818
C          2.44143        4.83003       13.84770
H          2.40877        4.41838       12.83688
H          1.42602        5.10248       14.16632
C          1.50322       11.38679       13.57223
H          2.16253       11.30745       14.42342
C         -0.54645        7.78857       13.18732
H         -0.73640        8.66065       13.79906
C          1.28658       10.28603       12.75203
C          1.50377        7.94066       15.65506
H          0.70255        7.33760       15.25340
C          3.42934        8.12428        9.50088
C          6.72976        6.31265        9.47651
H          7.32565        6.69009        8.64165
H          6.43635        5.28891        9.25110
H          7.36584        6.29568       10.36345
C          3.08311        3.86700       14.84087
H          3.86623        3.29281       14.34520
H          2.35636        3.18761       15.27973
C          3.37370        9.41280       15.34355
H          4.05336        9.93536       14.68441
C          6.81668        9.20218       10.69462
H          7.32682        9.62895        9.82702
H          7.50696        8.51981       11.18922
H          6.58315       10.00821       11.38659
C          2.03966        8.37323        8.97841
H          1.99102        8.10762        7.92074
H          1.77845        9.42631        9.06927
H          1.28631        7.78094        9.50563
C          3.57676        9.44710       16.71141
H          4.39259       10.02576       17.11844
C         -0.20746       11.62058       11.40773
H         -0.87484       11.70630       10.56250
C          3.70048        4.83573       15.84035
H          2.93741        5.24777       16.50251
H          4.49508        4.39575       16.43696
C          3.74823        5.76873        8.42670
H          3.90826        5.94042        7.35828
H          2.68926        5.57865        8.58970
H          4.30662        4.87576        8.70985
C          0.00904       12.71043       12.23559
H         -0.48761       13.64871       12.03876
C          1.71418        7.97328       17.02303
H          1.06872        7.40394       17.67691
C          3.94564       10.46090       10.59429
H          4.52612       11.17762       10.00941
H          4.19259       10.61774       11.64927
H          2.88986       10.68768       10.45478
Si         0.29417        4.15862       10.32171
C         -1.56355        6.89792       12.90187
H         -2.55270        7.05845       13.30416
C         -1.30848        5.80328       12.08802
H         -2.10825        5.11199       11.86897
C          2.74425        8.73005       17.55525
H          2.90377        8.75316       18.62306
C         -1.00302        2.79262       10.64552
H         -0.79171        1.92367       10.03188
H         -2.00607        3.12308       10.39821
H         -1.00778        2.46804       11.68136
C          2.00122        3.31938       10.46153
H          2.80945        4.03072       10.61748
H          2.22207        2.76718        9.55178
H          2.02113        2.60397       11.28017
C         -0.02221        4.83108        8.55440
H          0.46837        5.78316        8.37900
H         -1.08564        4.98288        8.39028
H          0.32768        4.13346        7.79900
