68
CSD_code = VITWED | q = 0 | S = 0 | Stoichiometry = C32H30Cl2S2SiZr | MND = 12
Zr         6.32300        5.84183        4.17575
Cl         7.81114        7.51641        4.85726
Cl         4.54244        7.28220        3.73321
Si         6.54710        2.51033        3.89109
S          3.17600        4.06369        4.81243
S          4.30590        4.44313        1.45263
C          2.61512        5.46793        5.71820
C          3.60677        6.09675        6.41034
C          6.21350        5.55682        6.68857
H          6.58380        6.24397        7.43956
C          6.94455        4.48356        6.12909
C          6.08107        3.67068        5.31712
C          4.87648        5.45367        6.22284
C          4.81112        4.31941        5.36700
C          1.18468        5.85209        5.58284
H          0.85003        5.68343        4.56086
H          0.55390        5.25608        6.24438
H          1.05596        6.90392        5.82890
C          3.47933        7.33193        7.18840
C          2.43567        7.53367        8.08695
H          1.70222        6.75551        8.23596
C          2.35290        8.71060        8.80878
H          1.54081        8.85528        9.50669
C          3.30734        9.69939        8.64177
H          3.23954       10.61856        9.20483
C          4.35100        9.50490        7.75110
H          5.09679       10.27434        7.61583
C          4.44304        8.32903        7.03123
H          5.25206        8.19117        6.31949
C          8.37196        4.20001        6.50447
H          8.76506        3.34665        5.96087
H          8.99958        5.07495        6.31658
H          8.43441        3.97534        7.57101
C          7.92358        1.22986        4.20743
H          8.83143        1.62634        4.64512
H          7.55046        0.46131        4.87498
H          8.19277        0.74966        3.27318
C          4.31858        6.03046        0.68662
C          5.48732        6.70842        0.86605
C          7.76654        6.04884        2.10488
H          8.47129        6.83899        1.87624
C          8.07810        4.83926        2.76698
C          6.95027        3.95006        2.72433
C          6.42580        5.95366        1.64754
C          5.92750        4.68404        2.05246
C          9.45799        4.52682        3.27399
H          9.50147        3.53796        3.72008
H         10.16836        4.55189        2.44552
H          9.77990        5.27406        4.00385
C          5.77763        8.07652        0.42852
C          6.38923        8.95395        1.32500
H          6.61467        8.62392        2.33519
C          6.67546       10.25074        0.94313
H          7.14085       10.92503        1.64691
C          6.36645       10.68724       -0.33526
H          6.59327       11.70085       -0.63131
C          5.76764        9.81916       -1.23221
H          5.53049       10.15328       -2.23201
C          5.47333        8.52150       -0.85475
H          5.02686        7.84042       -1.56361
C          3.07382        6.48142        0.00941
H          2.20331        6.14541        0.56998
H          3.05612        7.56732       -0.05488
H          3.00315        6.06817       -0.99805
C          5.02720        1.54374        3.27816
H          4.19431        2.19582        3.03682
H          5.26905        0.97474        2.38661
H          4.68810        0.84336        4.03428
