51
CSD_code = VIZSOP | q = 0 | S = 0 | Stoichiometry = C17H26FeN2O4Si | MND = 5
Fe         4.60990        3.74422        0.77841
Si         6.06647        3.74283       -1.00540
N          8.76847        4.82400       -0.25122
C          8.01036        3.74225       -0.50531
C         10.02980        4.42503        0.12558
C          8.27528        6.19383       -0.27249
C          8.81511        6.97173       -1.47112
C          8.53907        6.91577        1.04798
C         11.16650        5.31602        0.47992
C          5.97203        5.16841       -2.32906
C          3.30806        3.73998       -0.44546
C          3.42143        3.74437        2.06232
C          5.23798        5.30152        1.37421
O          2.44181        3.73717       -1.20843
O          2.63829        3.74403        2.90747
O          5.58415        6.31545        1.81812
H          7.19660        6.09860       -0.37941
H          8.67642        6.40282       -2.38596
H          8.26980        7.90671       -1.56168
H          9.87081        7.20671       -1.36638
H          9.54772        7.31065        1.11331
H          7.84542        7.74729        1.13407
H          8.35893        6.24805        1.88663
H         12.10408        4.79070        0.31367
H         11.17513        6.21748       -0.12294
H         11.12569        5.59776        1.53158
H          5.10587        4.97692       -2.95475
H          5.82675        6.15701       -1.90730
H          6.83769        5.19986       -2.98449
N          8.76859        2.66045       -0.25177
C         10.02989        3.05939        0.12520
C          8.27566        1.29054       -0.27398
C          8.81515        0.51393       -1.47361
C          8.54035        0.56728        1.04559
C         11.16678        2.16837        0.47887
C          5.97018        2.31614       -2.32773
H          7.19689        1.38565       -0.38022
H          8.67599        1.08370       -2.38784
H          8.27004       -0.42109       -1.56489
H          9.87096        0.27913       -1.36950
H          9.54909        0.17248        1.10990
H          7.84691       -0.26448        1.13119
H          8.36058        1.23401        1.88508
H         12.10424        2.69404        0.31304
H         11.17561        1.26739       -0.12471
H         11.12603        1.88580        1.53031
H          5.10378        2.50782       -2.95304
H          5.82432        1.32798       -1.90511
H          6.83537        2.28344       -2.98372
C          5.24360        2.19194        1.38104
O          5.59376        1.18149        1.82965
