50
CSD_code = VOSDAL | q = 0 | S = 0 | Stoichiometry = C16H22MoN4O4P2Si | MND = 6
Mo         3.77976        4.95446       17.49267
P          2.54989        7.02195       17.25369
Si         3.92754        8.22544       14.69338
O          1.49277        3.54579       19.01176
N          2.77594        8.14127       16.04058
C          0.97087        8.98305       16.96607
P          5.55602        6.05667       16.28141
O          5.33674        2.30414       17.76223
N          1.85208        9.12735       16.01257
C          1.15864        7.85147       17.79962
O          4.92404        5.69886       20.28536
N          5.36281        7.31988       15.21350
C         -0.14902        9.95742       17.13761
H         -0.07575       10.39911       18.13603
H         -1.09497        9.40908       17.09738
O          2.56562        3.85774       14.85046
N          6.48524        7.65475       14.53995
C         -0.13454       11.05278       16.08037
H         -0.21705       10.61684       15.08897
H          0.79864       11.60609       16.12808
H         -0.96362       11.73878       16.23692
C          0.31017        7.46468       18.96276
H         -0.71958        7.29319       18.64742
H          0.30118        8.25354       19.71579
H          0.69166        6.55023       19.41816
C          7.49467        6.89903       14.88638
C          7.20764        5.91259       15.86101
C          8.82240        7.08486       14.22725
H          9.61886        6.88019       14.94473
H          8.90124        8.12064       13.89594
C          8.96169        6.15425       13.02157
H          8.18064        6.36687       12.29599
H          8.87499        5.11351       13.32483
H          9.92904        6.29635       12.54610
C          8.16609        4.93849       16.45918
H          8.58204        4.28120       15.69575
H          7.65670        4.32480       17.20336
H          8.99460        5.45654       16.94355
C          4.42812       10.03333       14.46694
H          5.19916       10.11621       13.70983
H          4.81576       10.45956       15.38787
H          3.57242       10.62353       14.16049
C          3.16680        7.32050       13.20457
H          3.85772        7.31059       12.36733
H          2.25545        7.81310       12.88029
H          2.91973        6.28759       13.44464
C          2.32696        4.08471       18.44587
C          4.77752        3.29472       17.65062
C          4.51758        5.48859       19.23989
C          3.01844        4.29570       15.80378
