54
CSD_code = VUBGII | q = 1 | S = 0 | Stoichiometry = C23H26FeO2PSi(1+) | MND = 8
Fe         3.34225        2.67976        1.49448
P          1.83076        2.92782        3.07719
Si        -0.22877        5.09050        4.40201
O          5.07977        1.26537        3.31905
O          4.79164        5.12266        2.00246
C          0.94870        4.50363        2.94944
C          0.87460        5.99679        5.65664
C         -1.43566        6.27891        3.53314
C         -1.16702        3.66636        5.24447
C          4.37514        1.80904        2.61127
C          4.18808        4.16660        1.87169
C          2.64757        3.33944       -0.47435
C          1.75981        2.34300       -0.01765
C          2.50022        1.14828        0.17950
C          3.83756        1.39491       -0.21750
C          3.93637        2.74896       -0.60709
C          0.63409        1.57306        2.96280
C          1.11676        0.27795        3.15763
C          0.26654       -0.80453        3.03941
C         -1.06510       -0.60434        2.70463
C         -1.54060        0.67763        2.48287
C         -0.69473        1.76726        2.60459
C          2.48143        2.86093        4.77384
C          3.49729        3.75877        5.09893
C          4.03783        3.77453        6.37040
C          3.57184        2.88865        7.33027
C          2.56645        1.99119        7.01280
C          2.02194        1.97139        5.73993
H          0.41890        4.49121        1.99492
H          1.73322        5.25871        2.85511
H          1.50638        5.31156        6.21402
H          1.52026        6.72838        5.17963
H          0.26194        6.53038        6.37627
H         -0.91460        7.09297        3.03773
H         -2.04800        5.77919        2.78757
H         -2.11163        6.72304        4.25611
H         -2.01894        3.32551        4.66466
H         -0.53134        2.80867        5.43825
H         -1.54979        4.00763        6.20157
H          2.37243        4.32355       -0.81532
H          0.69018        2.43894        0.07614
H          2.07945        0.18419        0.41089
H          4.62079        0.65889       -0.29071
H          4.80066        3.21825       -1.04766
H          2.16191        0.13490        3.40319
H          0.63905       -1.80409        3.20356
H         -1.72911       -1.44926        2.61024
H         -2.57402        0.82980        2.21132
H         -1.06968        2.76424        2.43035
H          3.85764        4.44799        4.34807
H          4.82306        4.47362        6.61309
H          3.99654        2.89553        8.32180
H          2.20529        1.29858        7.75733
H          1.24434        1.25977        5.50333
