65
CSD_code = VUWJEE | q = 0 | S = 0 | Stoichiometry = C27H31BrN2O2SiW | MND = 6
Br         6.73973        6.25781       15.02063
N          8.99190        8.20125       13.21101
N          7.32597       10.05985       14.82623
O          3.63470        8.72162       13.63688
O          6.59622        7.64441       10.49343
Si         5.97061       11.19446       10.97724
W          6.71602        8.27726       13.50044
C          6.31308        9.64802       11.95398
C          4.76508        8.49299       13.66526
C          6.46352        8.44566       11.37820
C          9.51694        8.95475       14.35966
C          8.76059       10.27117       14.57304
C          9.42089        8.83453       11.95991
C          9.54452        6.84359       13.21225
C          6.61244       11.32227       14.65772
C          7.11403        9.61808       16.20945
C          7.73482       11.82476       10.61986
C          8.44458       11.29715        9.54450
C          9.75422       11.66748        9.29795
C         10.38736       12.57378       10.13256
C          9.69907       13.10805       11.20867
C          8.38771       12.73393       11.44689
C          5.08140       10.81614        9.34944
C          4.20312        9.73996        9.27313
C          3.54201        9.44306        8.09560
C          3.74640       10.22415        6.97069
C          4.61172       11.30360        7.03152
C          5.27105       11.59532        8.21152
C          4.95544       12.51405       11.88436
C          5.16341       13.86864       11.64661
C          4.38312       14.83068       12.26238
C          3.36873       14.45170       13.12504
C          3.13659       13.10680       13.36012
C          3.92216       12.15096       12.74285
H         10.58619        9.18168       14.21791
H          9.42820        8.32457       15.25264
H          9.21871       10.80972       15.41578
H          8.85759       10.89672       13.68050
H          9.06907        8.24775       11.11164
H         10.51710        8.88995       11.90849
H          9.01225        9.83932       11.85955
H          9.07678        6.26512       12.41339
H         10.62961        6.85739       13.04543
H          9.34957        6.34256       14.16025
H          5.55111       11.16236       14.83296
H          6.98064       12.07715       15.36223
H          6.73309       11.68890       13.64319
H          6.05218        9.42528       16.36444
H          7.43886       10.39228       16.91582
H          7.65910        8.69989       16.42646
H          7.95779       10.58503        8.89462
H         10.28375       11.24943        8.45398
H         11.41033       12.86534        9.94354
H         10.18436       13.82001       11.86182
H          7.85733       13.16912       12.28322
H          4.04316        9.12453       10.14681
H          2.86836        8.59943        8.05330
H          3.23335        9.99234        6.04829
H          4.77386       11.91708        6.15625
H          5.94848       12.43764        8.25128
H          5.94568       14.17376       10.96615
H          4.56231       15.87834       12.06569
H          2.75697       15.20136       13.60581
H          2.33829       12.80347       14.02211
H          3.73256       11.10393       12.92241
