120
CSD_code = WACRIE | q = 0 | S = 0 | Stoichiometry = C54H61BN2SiZr | MND = 8
Zr         4.66436        7.18206        0.89094
Si         5.78000        6.44163        3.72843
B         10.10143        9.31086       -1.82539
N          6.32285        7.06415        2.20252
N          7.03256        8.56956        0.67237
C          7.22302        8.00242        1.89584
C          7.89041        9.52482        0.28772
C          8.89263       10.01415        1.11241
H          9.50241       10.83696        0.78042
C          9.08138        9.44297        2.36604
H          9.86262        9.80524        3.01921
C          8.26532        8.41444        2.75370
H          8.37562        7.91824        3.70405
C          7.73052       10.16416       -1.04036
C          8.75676       10.10975       -2.00355
C          8.55015       10.80964       -3.19936
H          9.32355       10.77705       -3.95435
C          7.40170       11.53901       -3.43632
H          7.27715       12.06250       -4.37325
C          6.42480       11.61848       -2.45707
H          5.53840       12.21541       -2.61384
C          6.59679       10.93730       -1.26618
H          5.85557       11.02345       -0.48451
C         11.43011        9.92641       -2.39567
C         12.25944        9.16163       -3.24131
C         13.42169        9.69632       -3.76910
H         14.03432        9.08971       -4.42242
C         13.82568       10.99204       -3.47933
C         13.01851       11.74665       -2.64767
H         13.31041       12.75923       -2.40358
C         11.83872       11.24167       -2.11609
C         11.88327        7.76320       -3.63388
H         11.66369        7.16087       -2.75613
H         12.68963        7.29201       -4.19157
H         10.99477        7.77699       -4.26302
C         15.08622       11.54862       -4.06680
H         15.90544       10.83969       -3.95880
H         15.36272       12.48241       -3.58329
H         14.95058       11.74035       -5.13157
C         11.07725       12.14419       -1.18762
H         11.46019       12.03757       -0.17081
H         10.01657       11.91662       -1.18466
H         11.21020       13.18429       -1.47918
C         10.03680        7.92517       -1.09510
C         10.78983        7.70944        0.07255
C         10.54348        6.60227        0.86565
H         11.09897        6.47632        1.78510
C          9.59870        5.64992        0.51167
C          8.95509        5.79285       -0.70618
H          8.28569        5.01299       -1.04448
C          9.15852        6.90982       -1.50408
C         11.87938        8.66182        0.47212
H         12.29050        8.38808        1.44131
H         11.51536        9.68306        0.52343
H         12.68238        8.63493       -0.26399
C          9.28237        4.50801        1.42691
H          8.54140        4.83600        2.15706
H         10.16858        4.18196        1.96755
H          8.87340        3.66380        0.87588
C          8.51955        6.94996       -2.86263
H          7.54596        6.46679       -2.86525
H          9.15236        6.40990       -3.56914
H          8.41186        7.96950       -3.22160
C          6.83850        5.05641        4.53025
H          7.01705        4.21491        3.87183
H          6.34357        4.67813        5.41833
H          7.80482        5.44460        4.83745
C          5.64523        7.79854        5.07789
H          6.58260        7.88292        5.61819
H          4.87398        7.57388        5.80537
H          5.42827        8.77081        4.64539
C          4.14910        5.88852        2.93983
C          4.13340        4.94953        1.86692
C          2.98759        5.18382        1.07332
C          2.30073        6.30683        1.62344
C          3.01626        6.74072        2.76521
C          5.14902        3.85706        1.65837
H          5.25581        3.26251        2.56613
H          6.12863        4.27862        1.40579
H          4.83873        3.18549        0.85887
C          2.39203        4.23328        0.06922
H          3.14632        3.78140       -0.57477
H          1.65528        4.73594       -0.55357
H          1.87977        3.42168        0.59313
C          0.94433        6.76803        1.16270
H          0.18734        6.01612        1.39762
H          0.92912        6.93240        0.08326
H          0.65848        7.69523        1.65319
C          2.53731        7.72398        3.79870
H          2.45368        7.22256        4.76427
H          1.55480        8.11444        3.54337
H          3.21503        8.56855        3.92008
C          3.61983        9.01354        0.17182
H          4.39299        9.46913       -0.46216
H          2.70273        8.88657       -0.42266
C          3.38124        9.82962        1.36368
C          4.45968       10.25519        2.16740
H          5.47520        9.98706        1.88150
C          4.25508       11.03963        3.28600
H          5.10289       11.36247        3.87581
C          2.97360       11.42473        3.65436
H          2.81808       12.03762        4.52907
C          1.89939       11.02589        2.87473
H          0.89896       11.33712        3.14134
C          2.09813       10.25095        1.74922
H          1.25146        9.97780        1.13266
C          5.32488        6.15024       -0.96625
H          6.40722        6.32489       -0.97882
H          5.09825        5.07871       -1.01839
C          4.63917        6.90792       -2.01458
C          5.18998        8.09740       -2.52511
H          6.14738        8.43168       -2.14617
C          4.53932        8.83244       -3.49445
H          4.99471        9.73748       -3.87084
C          3.31383        8.41583       -3.99285
H          2.80601        8.99257       -4.75121
C          2.75711        7.24039       -3.51504
H          1.81034        6.89590       -3.90807
C          3.40809        6.49514       -2.55110
H          2.97310        5.56203       -2.22074
