82
CSD_code = WAMTOV | q = 0 | S = 0 | Stoichiometry = C27H48N4OSiTi | MND = 10
Ti         8.88649        5.88064        4.22701
N          9.81313        6.99394        5.47760
N         10.96815        6.23620        5.18253
N          9.76490        7.07528        2.51394
N          9.79714        4.87513        2.69469
Si         9.69392        7.91648        6.91434
O         14.83707       10.79030        8.42282
C         12.08854        7.04274        4.70509
C         11.44675        5.42526        6.30102
C         11.29496        8.83601        7.37220
C         11.72103        9.94220        6.64874
C         12.88605       10.62473        6.95584
C         13.66743       10.20592        8.02567
C         13.25076        9.10586        8.77487
C         12.08680        8.44368        8.44884
C         15.29577       11.91548        7.71749
C         10.31471        5.94971        2.11650
C         11.41960        5.84007        1.07419
C         10.23747        8.35626        2.01914
C          9.76517        9.47331        2.95392
C          9.78404        8.66303        0.58123
C         10.34128        3.55333        2.45944
C          9.25765        2.49267        2.65954
C         11.50786        3.25721        3.41509
C          6.64618        4.91421        4.51117
C          6.75663        6.08285        5.31987
C          6.89295        7.20418        4.46301
C          6.91687        6.71630        3.12877
C          6.77139        5.30528        3.16029
C          6.25447        3.56365        5.03676
C          6.53412        6.08385        6.80445
C          6.63489        8.63914        4.83021
C          6.69653        7.52613        1.88591
C          6.49066        4.48357        1.93480
H          9.04464        4.58675        5.14307
H          8.69368        8.97259        6.70378
H          9.36725        7.14351        8.14208
H         11.72955        7.78763        4.00335
H         12.59084        7.55982        5.53435
H         12.81145        6.39410        4.20602
H         10.61842        4.84588        6.70757
H         11.86624        6.06102        7.09159
H         12.22424        4.74745        5.94684
H         11.12586       10.28653        5.81467
H         13.17025       11.47837        6.35925
H         13.85919        8.79488        9.61027
H         11.77968        7.60000        9.05190
H         16.22284       12.21269        8.20560
H         14.57998       12.74281        7.76830
H         15.50109       11.67803        6.66799
H         11.86862        6.80390        0.85809
H         12.20441        5.17006        1.41718
H         11.00763        5.43814        0.14816
H         11.34524        8.37857        2.01599
H          9.85793        9.15113        3.99053
H         10.35862       10.37272        2.79693
H          8.72386        9.71306        2.75786
H         10.01295        7.83915       -0.08944
H         10.29516        9.55467        0.22212
H          8.71469        8.84408        0.54586
H         10.70324        3.47305        1.42057
H          8.50965        2.55647        1.87492
H          9.70007        1.49876        2.63579
H          8.78181        2.65421        3.62509
H         12.26817        4.03432        3.35779
H         11.96577        2.30082        3.16925
H         11.12238        3.22207        4.43196
H          6.85106        3.28991        5.90658
H          6.37436        2.79125        4.28023
H          5.20472        3.58023        5.34196
H          6.74449        7.05932        7.23581
H          7.18050        5.35159        7.29148
H          5.49693        5.81928        7.02854
H          7.47551        9.29082        4.60338
H          6.41279        8.72957        5.89064
H          5.76565        9.00056        4.27453
H          6.94229        8.57224        2.04554
H          7.28512        7.14047        1.05503
H          5.64054        7.46986        1.60027
H          7.29595        4.57579        1.20453
H          6.35923        3.43338        2.18366
H          5.56886        4.83360        1.46123
