33
CSD_code = WAQMUW | q = 0 | S = 0 | Stoichiometry = C10H17Cl2NSSiTi | MND = 8
Ti         0.00702        1.57644        2.93990
Si         1.65098       -0.80293        2.74147
S          2.55017        3.15422       -0.83751
N          1.08473        0.57152        1.82285
Cl        -1.54964        2.23043        1.59509
Cl         1.03448        3.44675        3.30098
C          0.39479       -0.32211        4.09000
C          0.65132        0.75720        4.97543
H          1.60122        0.96260        5.45649
C         -0.56102        1.43039        5.24159
H         -0.70003        2.22561        5.96513
C         -1.58064        0.79565        4.50332
H         -2.64029        1.01590        4.56403
C         -0.99406       -0.26454        3.77869
H         -1.53284       -0.99082        3.17993
C          3.46218       -0.62471        3.32837
H          3.66274        0.38716        3.67356
H          3.68377       -1.30988        4.13954
H          4.15333       -0.84209        2.52036
C          1.33152       -2.48251        1.89560
H          2.03239       -2.64028        1.08260
H          0.32782       -2.54178        1.48521
H          1.45677       -3.29961        2.59741
C          1.49133        0.94108        0.49047
H          1.79137        0.05190       -0.07815
H          0.63164        1.39296       -0.03023
C          2.65363        1.94686        0.51798
H          3.61494        1.44578        0.41498
H          2.63520        2.50777        1.45869
C          1.28686        4.25146       -0.13422
H          1.69714        4.75571        0.73738
H          1.03406        4.97551       -0.90159
H          0.40434        3.67365        0.14065
