45
CSD_code = WAQNAD | q = 0 | S = 0 | Stoichiometry = C14H25Cl2NSSiZr | MND = 9
Zr         7.79408        2.18268       16.30089
Si         5.83977       -0.06589       15.79031
S          6.68289        3.51243       18.63103
N          6.34590        0.95165       17.09112
Cl         9.61606        2.42303       17.74276
Cl         7.26350        4.36390       15.62128
C          7.35119        0.41745       14.74206
C          8.66946        0.21631       15.27231
C          9.52561        1.23050       14.77317
C          8.74391        2.08963       13.95031
C          7.41462        1.59656       13.93847
C          9.08791       -0.87571       16.21997
H          8.43652       -1.73981       16.11383
H          9.03989       -0.52649       17.26106
H         10.11069       -1.19134       16.01375
C         11.01332        1.31638       14.97275
H         11.35302        2.35145       14.92317
H         11.53521        0.75416       14.19400
H         11.30194        0.91091       15.94256
C          9.26322        3.25919       13.16206
H          8.45898        3.95672       12.93229
H          9.70902        2.92387       12.22234
H         10.02933        3.79707       13.72371
C          6.29548        2.17840       13.11997
H          6.66128        2.46833       12.13453
H          5.87588        3.07076       13.59648
H          5.50475        1.44531       12.98543
C          5.67282       -1.93229       16.19935
H          6.30451       -2.22131       17.03284
H          5.93322       -2.55602       15.35128
H          4.64880       -2.16453       16.47160
C          4.12447        0.46832       15.10529
H          3.34603        0.19388       15.81121
H          3.89227       -0.02541       14.16838
H          4.06220        1.54187       14.94736
C          5.81428        0.87008       18.43166
H          5.94647       -0.14537       18.84370
H          4.73035        1.07816       18.45063
C          6.52325        1.84599       19.37198
H          7.55834        1.53487       19.54834
H          5.99621        1.93346       20.32409
C          5.02164        3.76131       17.91999
H          4.87292        3.06794       17.08845
H          5.00925        4.78460       17.55349
H          4.27001        3.63430       18.69486
