60
CSD_code = WEMSEM | q = 0 | S = 0 | Stoichiometry = C30H26Cl2SiZr | MND = 12
Zr        -0.15748        3.96679        3.88220
Si        -0.15796        7.27791        3.88197
Cl         1.31364        2.37170        3.02262
C          0.61358        5.97066        5.02735
C         -0.14703        5.20162        5.98283
C         -1.35891        5.46239        6.67656
C         -1.82102        4.56842        7.59320
C         -1.13672        3.35323        7.88987
C         -1.65127        2.43402        8.81734
C         -0.99023        1.26278        9.08932
C          0.21111        0.96698        8.44150
C          0.74454        1.84896        7.53444
C          0.08936        3.05499        7.24305
C          0.58879        4.00340        6.29473
C          1.78333        4.02953        5.53135
C          1.79323        5.20921        4.75941
C          2.94719        5.57335        3.86864
C          1.05085        8.49956        3.04241
H         -1.88345        6.39274        6.51641
H         -2.73756        4.76994        8.12935
H         -2.58724        2.65921        9.30861
H         -1.40079        0.55990        9.79924
H          0.71606        0.03577        8.65209
H          1.66582        1.61184        7.02148
H          2.60242        3.32389        5.59048
H          3.88546        5.32581        4.36566
H          2.90884        5.00116        2.93562
H          2.95286        6.63557        3.64319
H          0.49143        9.16602        2.39400
H          1.53416        9.11240        3.79676
H          1.82875        8.04661        2.44206
Cl        -1.62762        2.37011        4.74145
C         -0.92936        5.97015        2.73706
C         -0.16882        5.20120        1.78143
C         -0.90454        4.00285        1.46973
C         -2.09887        4.02879        2.23340
C         -2.10878        5.20846        3.00536
C         -1.36688        8.49981        4.72101
C          1.04297        5.46199        1.08755
C         -0.40534        3.05459        0.52115
H         -2.91783        3.32299        2.17453
C         -3.26261        5.57221        3.89643
H         -0.80751        9.16660        5.36913
H         -1.85023        9.11229        3.96638
H         -2.14476        8.04708        5.32156
C          1.50495        4.56807        0.17080
H          1.56759        6.39229        1.24772
C          0.82056        3.35295       -0.12595
C         -1.06068        1.84868        0.22960
H         -4.20096        5.32536        3.39923
H         -3.22440        4.99922        4.82896
H         -3.26803        6.63423        4.12280
H          2.42145        4.76960       -0.36543
C          1.33478        2.43398       -1.05384
C         -0.52763        0.96698       -0.67796
H         -1.98182        1.61147        0.74275
C          0.67354        1.26290       -1.32604
H          2.27061        2.65925       -1.54535
H         -1.03274        0.03591       -0.88874
H          1.08380        0.56025       -2.03636
