98
CSD_code = WIHVIU | q = 1 | S = 0 | Stoichiometry = C35H52Cl3N6SiTi(1+) | MND = 6
Ti        14.05011        4.34903        2.48906
Si        14.84948        4.45555        5.24664
Cl        15.18205        6.09432        1.58783
Cl        14.67166        3.01790        0.82450
Cl        12.72098        2.67269        3.33478
N         12.93615        7.41578        3.50193
H         13.26124        7.08416        2.59228
N         13.82617        5.46420        4.22876
N         15.50461        3.73471        3.77901
N         17.11794        2.67246        2.57857
H         16.84093        3.33006        1.84800
N         12.40436        5.01164        1.69463
N         10.66463        5.05919       -0.13852
H         10.71998        6.00404       -0.52154
H          9.68423        4.79004       -0.04316
C         12.31093        8.73974        3.47066
C         11.83701        8.92864        2.02698
H         11.38428        9.90838        1.90506
H         11.09739        8.17259        1.77549
H         12.67658        8.85060        1.33936
C         11.11149        8.80646        4.41657
H         11.42482        8.82001        5.45558
H         10.45577        7.95313        4.26053
H         10.54933        9.71542        4.22137
C         13.33723        9.82447        3.81104
H         14.24020        9.68351        3.22182
H         13.59383        9.80053        4.86530
H         12.92614       10.80412        3.58438
C         13.30956        6.62354        4.50384
C         13.14696        7.02764        5.92150
C         14.06175        7.88148        6.52685
H         14.88346        8.28161        5.95272
C         13.92872        8.19797        7.86838
H         14.63915        8.86419        8.33334
C         12.89091        7.66123        8.61171
H         12.78745        7.91403        9.65536
C         11.99047        6.79332        8.01525
H         11.18660        6.36656        8.59522
C         12.12122        6.46881        6.67669
H         11.42551        5.79340        6.20272
C         13.88966        3.41413        6.52202
H         13.39247        4.06495        7.23501
H         14.56768        2.77460        7.07737
H         13.13770        2.78266        6.05784
C         16.26002        5.41759        6.09496
H         16.76080        6.09572        5.40954
H         17.00173        4.73030        6.48708
H         15.88101        5.99689        6.92858
C         16.41792        2.80449        3.69917
C         16.67367        1.95086        4.88233
C         15.72084        1.00040        5.23590
H         14.84274        0.87218        4.61853
C         15.90825        0.22583        6.36720
H         15.17573       -0.52119        6.63131
C         17.02904        0.41258        7.16035
H         17.17200       -0.19042        8.04377
C         17.96517        1.37612        6.82223
H         18.83506        1.52725        7.44300
C         17.79297        2.14441        5.68352
H         18.52203        2.89444        5.41523
C         17.87301        1.52542        2.05210
C         16.98141        0.28120        2.05800
H         17.46747       -0.52090        1.51013
H         16.03063        0.50430        1.57708
H         16.79253       -0.06173        3.07185
C         19.15303        1.28814        2.85432
H         19.77027        0.56038        2.33506
H         18.93671        0.90246        3.84594
H         19.71922        2.21164        2.94830
C         18.22837        1.89879        0.61204
H         18.84372        2.79558        0.58980
H         17.32347        2.07372        0.03364
H         18.78417        1.09292        0.14192
C         11.24038        5.20793        1.49583
C         10.09479        5.55557        2.32323
C          9.04842        6.38570        1.91793
H          9.02831        6.82381        0.92987
C          8.02770        6.69266        2.79997
H          7.22698        7.34267        2.48295
C          8.02785        6.16551        4.08141
H          7.22217        6.39942        4.75943
C          9.06394        5.33910        4.48918
H          9.05803        4.92085        5.48403
C         10.10067        5.04290        3.62421
H         10.91083        4.39015        3.92227
C         11.34573        4.11829       -1.08088
C         12.71511        4.69278       -1.42762
H         13.29989        4.89471       -0.52971
H         12.61259        5.61685       -1.99462
H         13.26828        3.98228       -2.03472
C         11.42867        2.75062       -0.41368
H         12.00478        2.79252        0.51029
H         11.91587        2.04596       -1.08066
H         10.43428        2.37231       -0.18391
C         10.47846        4.03498       -2.33997
H         10.95446        3.38404       -3.06682
H         10.35382        5.01332       -2.80058
H          9.49576        3.62346       -2.11712
