41
CSD_code = WIVXIJ | q = -1 | S = 0 | Stoichiometry = C16H19MoO4Si(1-) | MND = 4
Mo         5.07316        5.47956        8.88460
O          3.57147        6.04177        8.44146
O          5.80459        4.60305        7.67561
O          6.03653        6.71253        9.44999
O          4.80568        4.27220       10.34252
Si         4.35540        3.69973       11.75330
C          3.51800        5.14454       12.74169
C          2.33048        5.64566       11.91584
H          1.88295        6.52743       12.37774
H          1.56458        4.87503       11.83279
H          2.66279        5.91238       10.90900
C          3.03329        4.74233       14.13555
H          3.86632        4.40243       14.74770
H          2.30199        3.93906       14.06985
H          2.56486        5.59033       14.63736
C          4.53858        6.27873       12.86510
H          4.91129        6.55350       11.87461
H          5.38524        5.97199       13.47864
H          4.08421        7.16012       13.32092
C          3.08885        2.30962       11.42792
C          2.57166        2.20493       10.13805
H          2.93341        2.89143        9.37916
C          1.61925        1.25250        9.82364
H          1.22968        1.18840        8.81711
C          1.16144        0.38127       10.79878
H          0.41545       -0.36450       10.55776
C          1.66387        0.47035       12.08567
H          1.31019       -0.20759       12.85189
C          2.61639        1.42673       12.39231
H          2.99882        1.48597       13.40081
C          5.92750        3.10030       12.65372
C          5.93234        2.39334       13.85080
H          4.99415        2.12478       14.31403
C          7.11789        2.02637       14.46373
H          7.09859        1.47588       15.39558
C          8.32966        2.36490       13.88621
H          9.25733        2.08027       14.36485
C          8.34592        3.07083       12.69425
H          9.28931        3.33994       12.23967
C          7.15673        3.43339       12.08807
H          7.16212        3.98919       11.15603
