90
CSD_code = WOFMEJ | q = 0 | S = 0 | Stoichiometry = C35H44BCrN2O5PSi | MND = 6
Cr         2.72960       10.17166       15.77702
C          2.66121        9.52390       17.49478
O          2.62474        9.11476       18.57445
C          3.29802        8.46007       15.30992
O          3.67253        7.37212       15.23833
C          2.21752       11.79993       16.53510
O          1.94671       12.68392       17.22138
C          4.49874       10.60361       16.16729
O          5.54278       10.78688       16.62166
C          0.93455        9.68983       15.62552
O         -0.16781        9.36449       15.68590
P          2.69357       11.00956       13.41629
B          3.42983        9.99127       11.93445
N          2.47540        9.20464       11.19346
N          4.81007        9.96817       11.69192
C          1.37685        9.90041       10.53965
C         -0.03333        9.41711       10.88269
C          1.56044        9.96452        9.01530
C          2.55466        7.75163       11.30661
C          2.33273        6.97443       10.00788
C          1.63926        7.20154       12.41388
C          5.72105       10.54754       12.67911
C          6.79107       11.48523       12.12634
C          6.35650        9.49305       13.59149
C          5.31141        9.34131       10.46274
C          6.37962        8.26919       10.67173
C          5.77009       10.34890        9.39979
Si         2.68961       13.24019       13.02246
C          1.69161       15.12624       14.94120
C          0.79553       15.61390       15.87458
C         -0.38536       14.93525       16.12335
C         -0.66772       13.77020       15.43031
C          0.23263       13.28615       14.49967
C          1.42600       13.95373       14.24083
C          0.95486       14.11254       10.89037
C          0.59533       14.30196        9.56751
C          1.46171       13.93248        8.55262
C          2.68818       13.36920        8.86577
C          3.03887       13.17662       10.18857
C          2.18190       13.54739       11.22055
C          5.10702       14.74785       12.50475
C          6.35981       15.24025       12.82594
C          6.93322       14.93465       14.04887
C          6.24379       14.14314       14.95350
C          4.99128       13.65727       14.62868
C          4.40745       13.94324       13.39722
H          1.36508       10.86687       13.02607
H          1.45779       10.94074       10.89027
H         -0.17259        9.36162       11.95930
H         -0.24207        8.44350       10.44980
H         -0.75373       10.12588       10.47905
H          0.90566       10.72954        8.60436
H          1.32180        9.01834        8.54063
H          2.58739       10.22886        8.77785
H          3.58115        7.55582       11.63843
H          2.97517        7.34344        9.21234
H          1.29893        7.03172        9.68067
H          2.57140        5.92744       10.18174
H          1.64458        7.87857       13.26847
H          2.00601        6.23241       12.74398
H          0.61684        7.07689       12.07176
H          5.07719       11.16624       13.32612
H          6.35626       12.22673       11.46208
H          7.57474       10.94287       11.60540
H          7.24746       12.01328       12.96057
H          5.60559        8.77454       13.91174
H          6.76360        9.98145       14.47272
H          7.16583        8.96240       13.10113
H          4.43358        8.84910       10.04003
H          6.08079        7.57153       11.44908
H          7.34118        8.70311       10.93082
H          6.50453        7.71345        9.74473
H          5.05674       11.16450        9.32249
H          5.81327        9.84301        8.43725
H          6.75368       10.75671        9.60471
H          2.61685       15.65354       14.75714
H          1.02192       16.52094       16.41585
H         -1.08140       15.30960       16.85938
H         -1.58520       13.23323       15.62278
H          0.00445       12.37215       13.96667
H          0.27853       14.40683       11.67988
H         -0.36205       14.74087        9.32680
H          1.18299       14.08250        7.51988
H          3.36707       13.08126        8.07566
H          3.98964       12.72880       10.43951
H          4.66159       14.99396       11.55144
H          6.89038       15.86488       12.12174
H          7.91211       15.31698       14.29879
H          6.68100       13.90553       15.91206
H          4.44740       13.05046       15.34116
