52
CSD_code = WOPREA | q = 0 | S = 0 | Stoichiometry = C16H31Cl2NSiTi | MND = 8
Ti         0.33191       -4.96035        3.71469
Cl         2.49755       -4.75873        4.04418
Cl         0.13644       -2.75517        3.66281
Si         0.85274       -6.86046        6.00175
N         -0.19088       -5.61752        5.37110
C         -1.10570       -4.87559        6.23330
C          2.04617       -6.29277        7.38510
H          2.57122       -5.38745        7.09337
H          2.79163       -7.06086        7.56419
H          1.54476       -6.10462        8.33031
C         -2.27956       -4.33029        5.39643
H         -1.92336       -3.67906        4.59670
H         -2.94531       -3.75362        6.03608
H         -2.84520       -5.15851        4.97242
C         -1.12267       -4.99615        1.92114
C         -2.35671       -7.04001        3.02715
H         -2.52217       -7.90780        2.38431
H         -3.25500       -6.42664        2.99668
H         -2.20955       -7.40199        4.04632
C         -0.35741       -3.70585        6.90092
H          0.38501       -4.08817        7.59671
H         -1.05458       -3.07224        7.44505
H          0.15449       -3.10209        6.14999
C         -1.15423       -6.27983        2.54230
C          2.34408       -6.22688        1.17789
H          2.90363       -6.83090        1.89197
H          2.89042       -5.29899        1.01735
H          2.30014       -6.76799        0.22920
C          0.18155       -4.80517        1.38119
C         -0.05188       -8.43329        6.62582
H         -0.36055       -8.35852        7.66191
H          0.62161       -9.28074        6.55450
H         -0.93322       -8.67042        6.03768
C         -1.71651       -5.74781        7.34049
H         -2.20390       -6.61905        6.91144
H         -2.45632       -5.17131        7.89147
H         -0.95418       -6.07877        8.03835
C          0.13261       -6.86985        2.38704
C         -2.28506       -4.07215        1.69393
H         -2.02978       -3.04726        1.96882
H         -3.15344       -4.37616        2.27521
H         -2.56199       -4.07925        0.63748
C          0.95673       -5.95144        1.67538
C          0.64214       -3.63339        0.56540
H          1.63210       -3.30229        0.88461
H         -0.04627       -2.79662        0.66399
H          0.70137       -3.91002       -0.48988
C          0.43789       -8.31788        2.62818
H          0.08068       -8.90660        1.77825
H         -0.05552       -8.68433        3.52617
H          1.50824       -8.48767        2.72545
H          1.69212       -7.35623        4.87854
