79
CSD_code = WUBTIW | q = 0 | S = 0 | Stoichiometry = C25H47ClN4SiZr | MND = 5
C         -2.21061        2.13439        1.79099
C         -2.24060        1.22392        0.70757
H         -2.63651        0.23802        0.90212
C         -1.74823        1.54469       -0.53132
H         -1.77137        0.81211       -1.32496
C         -1.21090        2.80883       -0.77198
H         -0.82095        3.05922       -1.74646
C         -1.16949        3.72803        0.25000
H         -0.71536        4.69228        0.06651
C         -1.64515        3.42991        1.53373
C         -1.63553        4.43228        2.58765
C         -1.86309        5.87478        2.19873
H         -2.72754        6.26759        2.73293
H         -2.06053        5.96364        1.13582
H         -0.99675        6.48519        2.45313
C         -1.52631        4.93424        4.93973
H         -1.79281        5.96373        4.65978
C         -2.56431        4.39515        5.93200
H         -2.30226        3.34495        6.13519
H         -3.55451        4.43196        5.47025
C         -2.55298        5.19795        7.22985
H         -2.82742        6.23739        7.02907
H         -3.29205        4.78830        7.92071
C         -1.16578        5.15185        7.86126
H         -0.91005        4.11535        8.08811
H         -1.15860        5.71956        8.79374
C         -0.13450        5.72431        6.89468
H          0.85997        5.68803        7.34290
H         -0.36996        6.77301        6.69348
C         -0.13424        4.93724        5.58694
H          0.58991        5.36580        4.88821
H          0.14606        3.88974        5.76390
C         -5.32567        1.22658        1.52458
H         -5.15664        2.20011        1.07333
H         -6.38188        1.15173        1.76209
H         -5.10728        0.47806        0.77054
C         -4.13020       -0.86881        3.48313
H         -4.60088       -1.46382        2.70594
H         -4.61546       -1.12394        4.42027
H         -3.09108       -1.18344        3.55261
C         -5.25675        1.91483        4.48091
H         -6.08434        1.29326        4.80585
H         -5.67934        2.84096        4.10296
H         -4.66074        2.15671        5.35441
C         -3.12259        0.70600        7.53895
H         -2.54277        0.41112        8.41020
H         -4.01468        0.08604        7.49767
H         -3.42347        1.74543        7.65920
C         -2.30728        0.52975        6.24353
H         -1.95649       -0.51837        6.19890
H         -2.98159        0.68817        5.39393
C         -0.17336        1.26568        7.10572
H         -0.55860        1.51443        8.11285
H          0.64460        1.96713        6.89517
C          0.39644       -0.16848        7.15903
H         -0.24092       -0.82050        7.75236
H          1.38545       -0.16095        7.61180
H          0.46781       -0.58231        6.15152
C          2.10625        1.61368        4.45513
H          2.68634        1.07349        3.68780
H          1.66232        0.85840        5.11282
C          3.09131        2.46611        5.27829
H          3.57329        3.20732        4.64432
H          3.86012        1.83494        5.71789
H          2.56596        2.99058        6.07443
C          1.46533        2.92324        2.56269
H          2.50949        3.28071        2.60559
H          0.84289        3.79116        2.29787
C          1.36658        1.87025        1.43684
H          2.12426        1.09930        1.56741
H          1.51243        2.33385        0.46311
H          0.38499        1.38722        1.46083
N         -1.49111        4.03601        3.80614
N         -2.75806        1.84557        2.99442
N          1.04846        2.41616        3.85608
N         -1.20822        1.47905        6.10542
Si        -4.26161        1.01163        3.10691
Cl        -0.52588       -0.35626        3.49046
Zr        -0.90938        1.89049        4.12626
