41
CSD_code = WUJYEF | q = 0 | S = 0 | Stoichiometry = C14H22FeO3Si | MND = 8
Fe         0.52866       14.42848       13.01093
O          2.62799       16.33319       13.57542
O          0.09596       15.86452       10.54311
O          1.24019       11.90364       11.19034
Si         2.03110       13.14963       11.94484
C          1.81904       15.54176       13.36640
C          0.27382       15.25938       11.50734
C         -1.52804       14.56236       13.68030
C         -1.28305       13.23817       13.18479
C         -0.33932       12.60700       14.04470
C          0.10125       13.57765       14.98550
C         -0.66808       14.77509       14.78733
C         -2.61882       15.47646       13.21601
H         -3.53798       15.26759       13.76684
H         -2.81912       15.33705       12.15669
H         -2.35317       16.51796       13.37901
C         -2.09161       12.52598       12.14513
H         -2.41247       13.20847       11.36171
H         -2.98199       12.08390       12.59657
H         -1.50523       11.72986       11.69424
C         -0.04361       11.14243       14.04937
H          0.32775       10.81315       13.08296
H         -0.96037       10.59189       14.26782
H          0.69044       10.89425       14.81052
C          0.99573       13.31841       16.15889
H          0.41333       12.93935       17.00107
H          1.49320       14.23185       16.47529
H          1.75932       12.58594       15.91103
C         -0.68567       15.95777       15.70519
H          0.29988       16.14083       16.12596
H         -1.37991       15.78022       16.52892
H         -1.00318       16.85430       15.17889
C          3.14107       14.00033       10.62805
H          3.80460       13.28468       10.15263
H          3.75392       14.77158       11.07836
H          2.54896       14.47119        9.85057
C          3.21511       12.26997       13.16906
H          3.61771       12.97940       13.88294
H          4.04700       11.82201       12.63674
H          2.71588       11.48270       13.71750
H          0.87551       12.05104       10.32214
