67
CSD_code = XADBEJ | q = 0 | S = 0 | Stoichiometry = C25H39MoPSi | MND = 12
Mo         0.57445        6.55835       15.29236
P         -0.85658        8.56073       14.90325
Si         2.66610        4.45170       13.93453
C          2.78649        6.08816       14.89627
C          2.67612        6.22181       16.32441
C          2.35993        7.55910       16.62987
C          2.18108        8.25846       15.39721
C          2.44278        7.35881       14.32227
C          0.78750        4.53386       14.21945
C          0.16525        4.20712       15.47279
C         -1.11251        4.79006       15.51195
C         -1.28226        5.55057       14.31252
C         -0.11387        5.39603       13.50588
C          3.12065        5.25576       17.37454
C          2.54754        8.19995       17.97031
C          2.09520        9.74928       15.27466
C          2.65324        7.81687       12.91546
C          0.60329        3.17272       16.45991
C         -2.20563        4.38639       16.45227
C         -2.60146        6.08106       13.83767
C         -0.06705        5.79967       12.06861
C          3.61578        2.92784       14.60185
C          3.31466        4.41815       12.13486
C         -0.77135        7.82894       16.37376
C         -1.43921        8.13203       17.67285
C         -1.00954        7.12867       18.74546
C         -1.07338        9.55494       18.11834
C         -2.96292        8.07675       17.49261
H          2.40949        5.22732       18.19893
H          4.08370        5.57548       17.77917
H          3.23564        4.25325       16.98315
H          2.02061        9.14864       18.03471
H          3.61278        8.39696       18.12070
H          2.21457        7.55407       18.78009
H          3.07748       10.19331       15.45391
H          1.39154       10.16412       15.99839
H          1.76095       10.03629       14.27977
H          3.47388        8.53588       12.87624
H          1.75940        8.30822       12.53464
H          2.90083        6.98899       12.26245
H         -0.12129        2.35562       16.46995
H          0.65057        3.58148       17.46827
H          1.57064        2.75879       16.20180
H         -1.82648        4.21060       17.45684
H         -2.65142        3.45304       16.09644
H         -2.99252        5.13501       16.49641
H         -3.22855        5.25628       13.49038
H         -2.46684        6.78198       13.01632
H         -3.12770        6.60121       14.63962
H         -0.40557        6.82842       11.95668
H         -0.72355        5.16044       11.47452
H          0.93441        5.72559       11.66415
H          3.67562        2.83100       15.67808
H          4.63402        2.96527       14.22875
H          3.16269        2.02047       14.21437
H          4.34697        4.75393       12.11494
H          2.76277        5.01225       11.41855
H          3.30044        3.39320       11.77854
H         -1.50505        7.34460       19.69040
H          0.06408        7.17738       18.89844
H         -1.26662        6.11893       18.44147
H         -1.59042        9.80645       19.04297
H         -1.36188       10.26742       17.34779
H         -0.00366        9.64290       18.28872
H         -3.26669        8.77059       16.71093
H         -3.46356        8.34903       18.42035
H         -3.28290        7.07661       17.21165
