72
CSD_code = XAWDOO | q = 0 | S = 0 | Stoichiometry = C25H42NOPSiW | MND = 9
W         -0.91544        0.93235        4.95739
P         -3.26929        2.98888        6.67531
Si        -0.92740        3.37001        2.35035
O         -3.29192        0.62586        3.22932
N         -2.34650        0.83651        3.94528
C          0.36627       -0.74781        3.89136
C          0.05929       -1.18410        5.21106
C          0.73322       -0.31928        6.13313
C          1.40894        0.67122        5.38908
C          1.18474        0.41634        3.99248
C         -0.57515        3.03411        4.18117
C         -2.68589        4.10697        2.11344
C         -0.83243        1.88024        1.15669
C          0.28037        4.70531        1.67659
C          0.02386       -1.52627        2.65215
C         -0.62630       -2.47915        5.53466
C          0.95036       -0.58915        7.59348
C          2.43790        1.61991        5.93235
C          2.01268        1.03189        2.90096
C         -4.39261        2.67461        8.09047
C         -2.89736        4.76625        6.82210
C         -4.28402        2.79979        5.19448
C         -1.83660        1.92243        6.72412
C         -2.19712        0.48643        6.65643
C         -0.95737        2.38260        7.84526
C         -1.04037        1.82286        9.12229
C         -0.21278        2.24759       10.14552
C          0.71419        3.25244        9.92398
C          0.79907        3.83090        8.66809
C         -0.02762        3.40459        7.64456
H         -1.82444       -0.12182        7.48122
H         -3.25613        0.27007        6.48062
H          0.52303       -2.49770        2.67716
H         -1.05012       -1.70090        2.58063
H          0.34186       -1.00201        1.75427
H          0.07893       -3.31023        5.44899
H         -1.02487       -2.47880        6.54737
H         -1.44921       -2.66153        4.84516
H          1.90966       -1.09603        7.72736
H          0.97691        0.33082        8.17668
H          0.17699       -1.23585        8.00425
H          3.41123        1.12323        5.98164
H          2.18083        1.95222        6.93772
H          2.54467        2.49723        5.29593
H          3.07137        0.85567        3.10662
H          1.85693        2.10707        2.82605
H          1.77702        0.58998        1.93682
H         -1.14277        3.78399        4.74351
H          0.47808        3.26190        4.38034
H         -2.77006        4.57329        1.13658
H         -2.92866        4.86468        2.85351
H         -3.43704        3.32539        2.16171
H         -1.56186        1.98569        0.35934
H         -1.06174        0.96127        1.68606
H          0.14365        1.77760        0.69360
H          0.07465        4.92902        0.63496
H          0.19444        5.63327        2.23330
H          1.31534        4.38308        1.74079
H         -5.27145        3.31230        8.02759
H         -3.86103        2.87362        9.01963
H         -4.70005        1.63095        8.07134
H         -3.83031        5.31604        6.93586
H         -2.26169        4.93756        7.68907
H         -2.38437        5.10643        5.92579
H         -5.15305        3.45322        5.26214
H         -4.60305        1.76407        5.08944
H         -3.67224        3.05645        4.32978
H         -1.76358        1.04341        9.31840
H         -0.29409        1.79362       11.12305
H          1.36277        3.58130       10.72224
H          1.51844        4.61620        8.48362
H          0.05779        3.85161        6.66591
