88
CSD_code = XECXAE | q = 0 | S = 0 | Stoichiometry = C40H29BF15NSiZr | MND = 13
Zr        -3.26870        3.88554       -3.38053
Si        -2.64936        4.39190       -6.58197
N         -3.33128        3.36823       -5.35944
F         -0.11363       -0.76204       -6.76805
F          2.16569        0.54947       -7.26000
F          3.47202        1.86056       -5.24201
F          2.40691        1.81520       -2.71425
F          0.12996        0.53671       -2.22182
F         -1.97753       -2.86141       -1.87860
F         -3.23091       -2.20153        0.36008
F         -4.09815        0.35603        0.80993
F         -3.59116        2.31326       -1.21600
F         -2.38844        1.64063       -3.34805
F          1.00052       -2.57952       -4.48621
F          1.10988       -5.18567       -5.00094
F         -1.18428       -6.65729       -5.26702
F         -3.60769       -5.41167       -4.96941
F         -3.72894       -2.79450       -4.45310
C         -2.63782       -0.35036       -5.39159
C         -2.46030        1.07874       -5.95259
C         -3.70125        2.04616       -5.88551
C         -1.16751        3.55599       -1.96940
C         -1.73278        4.70713       -1.39380
C         -1.69637        5.73657       -2.35163
C         -1.14061        5.21703       -3.53959
C         -0.80937        3.85927       -3.30348
C         -5.62622        4.14537       -2.18466
C         -4.75798        5.20887       -1.87251
C         -4.55299        5.96014       -3.05919
C         -5.29841        5.34402       -4.09321
C         -5.96798        4.23974       -3.54886
C         -0.10917       -0.16696       -4.48040
C          0.47880       -0.12939       -5.74539
C          1.66730        0.53417       -6.01778
C          2.33547        1.20071       -4.99656
C          1.79367        1.17623       -3.71990
C          0.59863        0.50040       -3.49104
C         -2.15538       -0.67780       -2.79050
C         -2.38797       -1.59928       -1.76319
C         -3.03125       -1.26816       -0.56920
C         -3.47220        0.03423       -0.32106
C         -3.22625        0.97442       -1.30504
C         -2.59839        0.59033       -2.47416
C         -1.37356       -2.54357       -4.52401
C         -0.16897       -3.22673       -4.64036
C         -0.08562       -4.59327       -4.89201
C         -2.47100       -4.70768       -4.87660
C         -2.51018       -3.34222       -4.63153
C         -3.55653        4.22514       -8.26434
C         -0.79406        4.06736       -6.98430
C         -2.84897        6.24576       -6.11784
C         -4.88389        1.39807       -5.20349
C         -5.12652        1.51910       -3.84238
C         -6.15745        0.82532       -3.22565
C         -6.97674        0.00161       -3.97571
C         -6.76928       -0.10551       -5.34201
C         -5.73630        0.58370       -5.94872
B         -1.53050       -0.93474       -4.28643
H         -2.64326       -1.03106       -6.24139
H         -3.62205       -0.44765       -4.94210
H         -2.18169        0.99899       -7.00330
H         -1.63166        1.59855       -5.46697
H         -4.02798        2.18226       -6.92188
H         -0.90105        2.65356       -1.43428
H         -1.99903        4.81837       -0.35144
H         -1.91464        6.77827       -2.16069
H         -0.81356        5.79848       -4.38876
H         -0.22960        3.22358       -3.96123
H         -6.06914        3.46659       -1.46708
H         -4.46523        5.50740       -0.87393
H         -4.12682        6.95421       -3.10658
H         -5.44832        5.73419       -5.08864
H         -6.69579        3.63225       -4.06650
H         -3.32290        5.06933       -8.90473
H         -4.63604        4.19671       -8.14499
H         -3.25608        3.32946       -8.79786
H         -0.13682        4.18232       -6.12799
H         -0.45299        4.76229       -7.74535
H         -0.64347        3.06736       -7.37867
H         -1.99313        6.79598       -6.49423
H         -2.92941        6.44226       -5.05265
H         -3.72271        6.66794       -6.60299
H         -4.50547        2.21471       -3.27498
H         -6.32140        0.92768       -2.16178
H         -7.77352       -0.54853       -3.50090
H         -7.41273       -0.73691       -5.93459
H         -5.57215        0.47760       -7.01017
C         -1.24487       -5.34428       -5.02218
