48
CSD_code = XOMXED | q = 0 | S = 0 | Stoichiometry = C18H28SiW | MND = 12
W          0.16034        3.69456       11.98922
Si        -0.44469        1.88390        9.39493
C         -1.37467        4.24933       13.49960
H         -1.17014        3.89437       14.50890
H         -2.33079        3.81100       13.20237
H         -1.54322        5.32015       13.60672
C          1.34201        4.91212       13.41128
H          1.37530        4.51775       14.43039
H          0.99901        5.94427       13.52164
H          2.37855        4.96089       13.05833
C          0.33944        1.87393       13.42046
C         -0.55334        1.59652       12.32163
H         -1.56205        1.22099       12.42558
C          0.22949        1.55976       11.12826
C          1.58086        1.85389       11.49644
H          2.42529        1.83592       10.81971
C          1.66978        1.98641       12.88604
C          0.04776        1.58811       14.86734
H          0.44862        0.60790       15.13569
H         -1.02461        1.58056       15.04808
H          0.50780        2.32981       15.51967
C          2.93007        2.03096       13.69216
H          3.11542        1.04826       14.13084
H          2.85886        2.75141       14.50411
H          3.77991        2.29385       13.06541
C         -0.65978        5.64161       11.02367
C         -1.31559        4.47155       10.49243
H         -2.38690        4.33207       10.44590
C         -0.34751        3.73683        9.74330
C          0.89658        4.43549        9.85472
H          1.80903        4.16190        9.34097
C          0.70653        5.61891       10.57588
C         -1.35755        6.88608       11.49765
H         -1.40383        7.61339       10.68380
H         -0.82712        7.34668       12.33062
H         -2.37346        6.65938       11.81267
C          1.67827        6.75152       10.69019
H          1.39707        7.54287        9.99215
H          2.68639        6.42123       10.44779
H          1.68088        7.17497       11.69220
C         -2.21854        1.25043        9.13910
H         -2.88185        1.57830        9.93155
H         -2.23652        0.16639        9.11477
H         -2.61949        1.60880        8.19737
C          0.70851        1.30062        7.99739
H          0.73402        0.21734        7.95460
H          1.72644        1.65127        8.12737
H          0.35370        1.66106        7.03813
