85
CSD_code = XOQWEG | q = 0 | S = 0 | Stoichiometry = C33H47ClNPRuSi | MND = 9
Ru         3.26710        5.32780        5.01404
Cl         5.39351        8.36505        4.74241
P          3.79173        3.38760        3.77279
Si         5.43061        6.31287        5.22077
H          6.62757        5.95339        4.38108
N          4.62545        6.05634        2.21117
C          6.31407        4.83617        0.89942
H          6.02887        5.27111       -0.06175
H          7.18915        5.38212        1.26096
C          5.18824        4.88586        1.89185
C          4.85613        3.61484        2.33806
C          5.74086        2.66300        1.65761
C          5.85917        1.27644        1.67435
H          5.23584        0.65459        2.29224
C          6.79850        0.65092        0.87087
H          6.87551       -0.42681        0.89913
C          7.63396        1.37221        0.03629
H          8.35883        0.86351       -0.58113
C          7.52807        2.75459       -0.00296
H          8.16702        3.33835       -0.65041
C          6.59334        3.37491        0.79376
C          3.41481        6.10008        2.96601
H          2.65619        5.56251        2.37573
H          3.11820        7.15140        3.01437
C          5.16561        7.27577        1.65699
H          6.24319        7.33069        1.81204
H          4.71899        8.13141        2.15536
H          4.96174        7.34399        0.58261
C          4.70543        2.06525        4.72974
H          4.82198        1.21064        4.06284
C          6.10062        2.55590        5.09819
H          6.65476        1.76272        5.59778
H          6.04747        3.41464        5.76234
H          6.64885        2.84958        4.20596
C          3.93019        1.60950        5.96018
H          4.51766        0.88535        6.52295
H          2.98611        1.14259        5.68535
H          3.72339        2.45825        6.61011
C          2.28429        2.40978        3.18044
H          1.67720        2.27497        4.08313
C          2.56376        1.03929        2.57219
H          1.61680        0.58344        2.28079
H          3.04656        0.36388        3.27272
H          3.17589        1.13880        1.68002
C          1.48954        3.22859        2.17009
H          0.60998        2.67364        1.84284
H          2.10342        3.44016        1.29488
H          1.15344        4.16551        2.60208
C          1.91367        5.25739        6.84887
C          2.42278        6.58691        6.66149
C          1.91377        7.07203        5.42211
C          1.07998        6.04914        4.85258
C          1.07521        4.93687        5.73885
C          1.95628        4.50216        8.14393
H          1.11671        4.81818        8.76836
H          2.87645        4.70464        8.68884
H          1.87349        3.42771        7.98825
C          3.05775        7.43473        7.72202
H          2.27593        7.87033        8.34967
H          3.63272        8.24578        7.28064
H          3.72291        6.85447        8.35864
C          1.92190        8.51277        5.00462
H          1.29964        9.08852        5.69383
H          1.51875        8.63849        4.00141
H          2.92700        8.93177        5.02911
C          0.09387        6.30670        3.75045
H         -0.59889        7.08823        4.07144
H         -0.49165        5.41865        3.52081
H          0.57474        6.65086        2.83351
C          0.11666        3.78390        5.71890
H         -0.75674        4.03719        6.32614
H          0.56475        2.88634        6.14267
H         -0.22856        3.55728        4.71242
C          6.24765        6.40626        6.95890
C          7.10900        7.44718        7.29154
H          7.31429        8.21849        6.56463
C          7.70435        7.52309        8.53789
H          8.36739        8.34521        8.76796
C          7.45227        6.55028        9.48929
H          7.91353        6.60726       10.46497
C          6.60224        5.50281        9.17888
H          6.39763        4.73555        9.91336
C          6.01207        5.43893        7.92989
H          5.34570        4.61686        7.70476
H          4.00874        4.44843        6.00210
