55
CSD_code = XOTNOJ | q = 0 | S = 0 | Stoichiometry = C24H28NbPSi | MND = 13
Nb         3.33902       -0.11315        5.89101
P          3.15881       -4.24212        4.85873
Si         1.84748       -2.48648        5.58362
C          4.07497        1.90602        4.48113
C          2.72145        2.12869        4.78842
C          1.94990        1.20022        4.06010
C          2.83340        0.37792        3.32896
C          4.15072        0.82485        3.58944
C          5.44090        0.84386        7.15625
C          4.34582        1.56543        7.66530
C          3.52531        0.67739        8.37166
C          4.09938       -0.61854        8.28164
C          5.30958       -0.49457        7.55294
C          4.56025       -4.05559        6.01871
C          5.84497       -3.96587        5.49701
C          6.94038       -3.85734        6.33632
C          6.76167       -3.84620        7.70932
C          5.48230       -3.93071        8.23833
C          4.38730       -4.02659        7.40030
C          2.32158       -5.67954        5.59912
C          2.98955       -6.63039        6.36600
C          2.32471       -7.75026        6.83144
C          0.99002       -7.95209        6.52403
C          0.32647       -7.03088        5.72866
C          0.98838       -5.91143        5.26431
C          0.56955       -2.34237        4.13399
C          0.76932       -2.94635        7.13076
H          1.80815        0.06328        6.50178
H          4.31934       -1.25649        5.22778
H          4.90255        2.53484        4.78173
H          2.32651        2.95634        5.36279
H          0.86993        1.19270        3.99007
H          2.55207       -0.35933        2.58837
H          5.04164        0.47752        3.08338
H          6.29877        1.26395        6.64869
H          4.21102        2.63716        7.60721
H          2.66938        0.94328        8.97800
H          3.80615       -1.47876        8.87176
H          6.04657       -1.27449        7.42156
H          5.97790       -3.98723        4.42458
H          7.93612       -3.78908        5.92092
H          7.61541       -3.77255        8.36804
H          5.34348       -3.92318        9.31081
H          3.39126       -4.11075        7.81276
H          4.03534       -6.49470        6.60092
H          2.85497       -8.47360        7.43462
H          0.47320       -8.82639        6.89175
H         -0.71042       -7.18980        5.46877
H          0.47802       -5.19998        4.63302
H          0.13621       -1.34624        4.11084
H          1.04072       -2.52685        3.17203
H         -0.24920       -3.04831        4.23983
H         -0.14443       -2.35937        7.13521
H          0.49100       -3.99750        7.12679
H          1.29361       -2.73878        8.06051
