64
CSD_code = XUWHAA | q = 0 | S = 0 | Stoichiometry = C21H39NOSiW | MND = 10
C         -1.11478        2.37696        8.49062
H         -0.90580        1.54990        9.17674
H         -1.22060        1.91219        7.50255
C          0.19131        3.18809        8.46400
C          0.03260        4.56085        7.80596
H         -0.64235        5.18529        8.38568
H         -0.35338        4.46315        6.79402
H          0.99813        5.06131        7.75291
C          0.72645        3.37095        9.88778
H          1.62809        3.98001        9.88181
H          0.96997        2.40706       10.33069
H         -0.01031        3.85935       10.51689
C          1.23894        2.39544        7.66251
H          2.20389        2.89796        7.69236
H          0.93679        2.30021        6.62124
H          1.36323        1.39602        8.07514
N         -2.29906        4.49022       10.00785
O         -1.88946        5.35210       10.73212
C         -4.24978        2.38993       11.02936
C         -3.18230        1.48977       10.69389
C         -3.52293        0.86839        9.44266
C         -4.74926        1.42445        8.99749
C         -5.21744        2.33485        9.99106
C         -4.40722        3.04922       12.36909
H         -5.24716        3.73805       12.36783
H         -3.50776        3.60064       12.64267
H         -4.58368        2.29207       13.13622
C         -2.13560        1.04415       11.67904
H         -1.69951        1.90240       12.18940
H         -1.33256        0.49547       11.19186
H         -2.58510        0.39030       12.43012
C         -2.87271       -0.33877        8.83160
H         -3.52728       -1.20405        8.95735
H         -1.92349       -0.56450        9.31051
H         -2.69143       -0.20758        7.76492
C         -5.55620        0.90073        7.84259
H         -4.91227        0.47361        7.07482
H         -6.16818        1.67868        7.38485
H         -6.22947        0.11219        8.18782
C         -6.59837        2.91451       10.06835
H         -7.17551        2.36703       10.81689
H         -7.12083        2.82783        9.11808
H         -6.57999        3.96364       10.35537
C         -3.15262        3.48114        6.80920
H         -2.32956        3.43216        6.10646
H         -3.98554        2.82568        6.55176
C         -3.43682        4.69811        7.42958
H         -2.74909        5.53389        7.32622
C         -4.55757        4.77763        8.29316
H         -5.41372        4.18506        7.96047
C         -6.68217        6.97730        8.36138
H         -7.46263        6.26386        8.60772
H         -6.65247        7.07082        7.28065
H         -6.98145        7.93821        8.76523
C         -5.12083        6.42628       10.97912
H         -6.01144        5.91742       11.33596
H         -5.16354        7.44344       11.35704
H         -4.25302        5.95196       11.42454
C         -3.66510        7.74817        8.61006
H         -3.92707        8.72042        9.01592
H         -3.55604        7.86234        7.53560
H         -2.69899        7.47375        9.02253
Si        -4.98489        6.44955        9.07318
W         -3.12208        3.18842        9.15259
