82
CSD_code = YAGKAS | q = 0 | S = 0 | Stoichiometry = C28H50ClPRuSi | MND = 9
Ru         1.10695        0.31976        3.88565
P          3.09081       -0.96421        3.66769
Si         1.75324        2.64596        3.93376
Cl         1.46554        3.57314        5.78909
C          3.44104        3.30104        3.28157
C          3.55879        3.67321        1.93585
C          4.76015        4.16249        1.44593
C          5.87864        4.29144        2.25537
C          5.76721        3.90041        3.57785
C          4.57503        3.40865        4.09462
C          2.40990        3.55813        0.97918
C          7.16086        4.84121        1.70621
C          4.55783        3.01044        5.53972
C          3.77271       -1.78276        5.21330
C          2.77040       -2.77252        5.79420
C          4.13989       -0.75707        6.28024
C          2.89231       -2.47405        2.55690
C          2.34536       -2.11090        1.17849
C          4.09805       -3.39646        2.39817
C          4.60289       -0.00508        3.08854
C          5.98824       -0.59681        3.34879
C          4.49076        0.38259        1.61622
C         -0.73858       -0.53076        2.86200
C         -0.98476        0.79988        3.35648
C         -0.87142        0.76303        4.77692
C         -0.54422       -0.58768        5.15294
C         -0.50615       -1.38622        3.97399
C         -1.10184       -0.97704        1.47619
C         -1.61111        1.89245        2.54265
C         -1.35729        1.80361        5.73861
C         -0.66551       -1.09667        6.55958
C         -0.54812       -2.88468        3.93338
H          1.49186        0.63375        2.42956
H          1.73802        0.47482        5.26989
H          0.79736        3.55073        3.22204
H          4.83091        4.44807        0.40459
H          6.62906        3.97832        4.22740
H          2.75641        3.66708       -0.04635
H          1.91467        2.59608        1.08219
H          1.67393        4.33579        1.17569
H          7.99018        4.64489        2.38167
H          7.38496        4.40239        0.73525
H          7.07737        5.91995        1.57256
H          5.56487        2.78136        5.88499
H          4.16916        3.82793        6.14528
H          3.91761        2.14832        5.70560
H          4.67929       -2.31842        4.91529
H          3.12870       -3.15034        6.75124
H          1.82456       -2.26295        5.96464
H          2.60806       -3.62451        5.13748
H          4.60027       -1.25813        7.13133
H          4.83298       -0.01081        5.90369
H          3.24762       -0.24213        6.63045
H          2.10690       -3.03081        3.08472
H          1.83321       -2.96701        0.73895
H          1.64493       -1.28267        1.25027
H          3.14447       -1.82002        0.50320
H          3.78592       -4.29420        1.86378
H          4.87677       -2.91913        1.81014
H          4.51504       -3.70707        3.35182
H          4.50727        0.91998        3.67178
H          6.72866        0.11446        2.98407
H          6.18431       -0.75995        4.40346
H          6.13843       -1.53254        2.81887
H          5.13219        1.23771        1.41287
H          4.80094       -0.43634        0.97168
H          3.46991        0.66526        1.37415
H         -2.18997       -1.05923        1.40706
H         -0.77363       -0.26054        0.72476
H         -0.67537       -1.94847        1.23660
H         -2.66824        1.66347        2.38404
H         -1.54155        2.85143        3.05011
H         -1.13478        1.98710        1.56779
H         -2.37206        1.55131        6.05853
H         -0.72345        1.85806        6.62145
H         -1.37403        2.79027        5.28283
H         -1.72152       -1.10097        6.84221
H         -0.28839       -2.11255        6.66064
H         -0.13567       -0.45655        7.26318
H         -1.58459       -3.21042        4.05853
H         -0.19193       -3.27035        2.97994
H          0.04028       -3.33355        4.73113
