70
CSD_code = YICXIT | q = 0 | S = 0 | Stoichiometry = C31H34FeN2OSi | MND = 8
Fe         2.81429        5.48187        5.24322
C          2.35663        6.94531        4.42033
O          2.00792        7.93692        3.92893
C          3.40158        4.56122        3.66328
N          2.23677        4.14882        3.88680
C          1.14103        3.45855        3.26751
H          1.49618        2.89069        2.39527
C          0.11214        4.49932        2.81913
H         -0.17635        5.10480        3.67580
H         -0.76686        4.01154        2.40622
H          0.53683        5.15686        2.06568
C          0.51997        2.50632        4.28757
H          1.23954        1.75100        4.59147
H         -0.34981        2.01070        3.86437
H          0.21641        3.07345        5.16446
N          4.36923        4.27030        2.78026
C          5.54030        5.15051        2.76271
H          6.22530        4.73920        2.01518
C          5.13195        6.55718        2.34202
H          4.65518        6.53732        1.36485
H          6.00522        7.20125        2.29015
H          4.43206        6.96357        3.06931
C          6.23162        5.16192        4.12005
H          5.54459        5.55716        4.86822
H          7.11845        5.78809        4.08394
H          6.52886        4.15374        4.39992
Si         4.34668        2.76434        1.86717
C          6.11899        2.36527        1.33124
C          6.98334        1.66382        2.16682
H          6.63231        1.33322        3.13412
C          8.27869        1.37734        1.77561
H          8.93480        0.83219        2.43877
C          8.73356        1.78620        0.53333
H          9.74451        1.56306        0.22517
C          7.88510        2.47905       -0.31396
H          8.23303        2.79767       -1.28596
C          6.59131        2.76306        0.08345
H          5.93283        3.30176       -0.58332
C          3.76109        1.41668        3.06171
C          4.08437        1.49874        4.41445
H          4.62884        2.35820        4.77814
C          3.70535        0.50823        5.30197
H          3.96684        0.59108        6.34734
C          2.98910       -0.58839        4.85131
H          2.69071       -1.36336        5.54221
C          2.65145       -0.68237        3.51152
H          2.08667       -1.53178        3.15543
C          3.03627        0.31073        2.62847
H          2.76319        0.23155        1.58627
C          3.27855        2.98427        0.32043
C          3.21649        1.98363       -0.64654
H          3.78954        1.07785       -0.50627
C          2.44781        2.13854       -1.78558
H          2.41157        1.35023       -2.52368
C          1.72774        3.30543       -1.98206
H          1.12631        3.42788       -2.87089
C          1.78848        4.31692       -1.03834
H          1.23628        5.23300       -1.19043
C          2.55865        4.15576        0.09895
H          2.60799        4.94936        0.83090
C          4.03035        5.93247        7.22333
H          4.86964        6.59497        7.36169
C          4.09210        4.53627        7.05319
H          4.99223        3.94540        7.00021
C          2.77503        4.03095        7.06846
H          2.50331        2.98770        7.05279
C          1.88659        5.11476        7.27684
H          0.83063        5.03679        7.47655
C          2.66260        6.28817        7.37121
H          2.29801        7.26877        7.63453
