73
CSD_code = YILGEG | q = 0 | S = 0 | Stoichiometry = C27H35IrN2O5S2Si | MND = 8
Ir         7.85319       -0.28993       15.70599
S          8.44299       -0.64379       19.08619
S          6.93734        3.02955       15.35552
Si         7.37817        1.71861       17.85733
O          8.04710       -2.03536       19.08225
O          8.01301        0.16445       20.19763
O          6.16692        2.73214       14.16739
O          6.34725        3.92034       16.32116
O         10.73683        0.42409       15.31051
N          7.33440        1.69118       16.11876
N          7.95732        0.08212       17.75569
C          5.67423        1.86782       18.68988
C          8.66118        2.95230       18.54022
C         10.21768       -0.57784       18.94127
C         10.94154        0.38141       19.61812
C         12.30307        0.49524       19.39259
C         12.94381       -0.34205       18.48673
C         12.19601       -1.30679       17.81735
C         10.83675       -1.42407       18.04092
C         14.41108       -0.20696       18.21478
C          8.51167        3.68402       14.83671
C          9.21816        3.00399       13.86292
C         10.48551        3.43274       13.51524
C         11.05435        4.54166       14.13658
C         10.32471        5.21486       15.10915
C          9.05623        4.78558       15.46264
C         12.43582        4.98507       13.76179
C          5.68349       -0.76976       15.05499
C          6.05293       -1.71229       16.02391
C          7.22719       -2.41451       15.55436
C          7.52881       -1.93293       14.23270
C          6.61609       -0.85733       13.95175
C          4.48639        0.11675       15.04462
C          5.34416       -2.06115       17.28686
C          7.78916       -3.62084       16.23220
C          8.46698       -2.57592       13.25513
C          6.42646       -0.13914       12.65600
C          9.63287        0.12719       15.44002
H          5.26795        2.85917       18.51683
H          5.77261        1.70229       19.75802
H          4.96293        1.14182       18.30401
H          9.63006        2.85764       18.05307
H          8.79456        2.78826       19.60420
H          8.30484        3.96670       18.39591
H         10.42564        1.01622       20.32015
H         12.87446        1.24235       19.92427
H         12.68710       -1.96565       17.11595
H         10.24265       -2.17086       17.53880
H         14.56568        0.25849       17.24156
H         14.89028       -1.18353       18.19648
H         14.89360        0.40815       18.96944
H          8.75720        2.15236       13.38725
H         11.04472        2.90584       12.75584
H         10.75247        6.08082       15.59336
H          8.47039        5.29461       16.21108
H         13.16949        4.26756       14.12817
H         12.66325        5.95795       14.18894
H         12.53923        5.04295       12.68010
H          3.77058       -0.24070       14.30190
H          4.77410        1.13272       14.77510
H          3.99878        0.13901       16.01527
H          6.05116       -2.09950       18.11535
H          4.88277       -3.04553       17.19016
H          4.57003       -1.33633       17.52205
H          7.91180       -3.42235       17.29727
H          8.74859       -3.90619       15.80767
H          7.09999       -4.45997       16.12260
H          9.32882       -3.00677       13.75848
H          8.82028       -1.86007       12.51746
H          7.94244       -3.37679       12.73074
H          5.57036       -0.55726       12.12401
H          7.30360       -0.22560       12.01952
H          6.22469        0.91546       12.84513
