102
CSD_code = YIMDEF | q = 0 | S = 0 | Stoichiometry = C39H59IrN2Si | MND = 6
Ir         7.68310        9.02894       12.88322
C          9.09489        6.43627       13.73280
H          9.82271        5.98327       14.41773
H          9.19670        5.91881       12.77639
Si         5.97377        9.71145       11.43530
N          4.74759        8.38690       10.92468
N          4.65277       10.84558       12.15407
C          3.45332        8.91320       12.83869
H          2.73946        8.53483       13.55518
C          3.71688       10.28074       12.89071
C          2.85971       11.08849       13.82266
H          2.99034       12.15561       13.66424
H          3.13086       10.84944       14.85119
H          1.81008       10.82978       13.69179
C          6.47104        8.45096       14.60626
H          5.46825        8.87129       14.55476
C          5.61562       12.86340       13.17408
C          6.70754        7.30884       13.84946
H          5.88706        6.95708       13.23178
C          4.84221       12.25562       12.17448
C          5.87299        6.85539        9.35176
C          4.79550        7.68317        9.69350
C          3.26965        6.65372       11.86567
H          3.50268        6.10684       10.95618
H          2.19122        6.69290       12.00174
H          3.68279        6.10935       12.71556
C          3.86617        8.03335       11.85039
C          5.80872       14.23850       13.13338
H          6.40702       14.71096       13.89670
C          6.20706       12.10725       14.33803
H          5.96309       11.05029       14.23026
C          3.72475        7.83233        8.79191
C          2.52370        8.70824        9.07335
H          2.67699        9.23759       10.01744
C          2.35206        9.74438        7.95932
H          3.29118       10.25522        7.76493
H          1.60049       10.47684        8.24445
H          2.02640        9.27434        7.03482
C          3.32477       12.45710       10.13714
H          3.48784       11.37856       10.10278
C          4.82600        6.36306        7.22870
H          4.83933        5.85186        6.27756
C          7.01191        6.54126       10.28928
H          6.96186        7.19840       11.16009
C          8.36969        6.78112        9.62850
H          8.57965        6.04971        8.85171
H          9.15578        6.71869       10.37562
H          8.39780        7.77462        9.18974
C          1.86763       12.71283       10.53659
H          1.63403       12.22401       11.47903
H          1.19293       12.32836        9.77457
H          1.68437       13.77955       10.64934
C          4.24459       13.04530       11.18144
C          5.23760       15.01797       12.15053
H          5.39259       16.08673       12.13980
C          4.44673       14.41871       11.19262
H          3.97299       15.03434       10.44488
C          3.75823        7.16355        7.57645
H          2.93361        7.26900        6.88866
C          5.86906        6.21610        8.11749
H          6.69613        5.57622        7.85293
C          6.88735        5.08960       10.76207
H          5.95323        4.94099       11.29974
H          7.71028        4.83894       11.42553
H          6.90679        4.40100        9.91971
C          3.59772       13.03606        8.74740
H          3.31949       14.08527        8.69313
H          3.01529       12.50692        7.99810
H          4.65144       12.94546        8.49653
C          5.62397       12.61993       15.66070
H          5.96173       13.63229       15.86814
H          5.94687       11.98450       16.48255
H          4.53712       12.62626       15.63964
C          1.24197        7.87846        9.19223
H          1.01802        7.37994        8.25205
H          0.40377        8.52522        9.44375
H          1.33392        7.11887        9.96232
C          6.16949       10.52152        9.69443
H          7.02705       10.07668        9.20300
H          6.37644       11.58235        9.79076
H          5.31537       10.39365        9.03539
C          9.24502        8.87828       14.45052
H          9.83693        9.78274       14.35952
C          7.16862        8.75952       15.90828
H          6.77730        8.10283       16.69649
H          6.91418        9.78160       16.19607
C          7.66922        6.22248       14.27217
H          7.29985        5.25869       13.91295
H          7.68623        6.16646       15.36294
C          7.73054       12.23470       14.35681
H          8.14570       11.77911       13.46246
H          8.13259       11.72356       15.22701
H          8.04067       13.27581       14.40133
C          8.70005        8.62621       15.83404
H          9.14907        9.34056       16.52947
H          9.00690        7.63089       16.16273
C          9.44650        7.88557       13.51877
H         10.21476        8.03763       12.76669
C          8.99574       10.12772       11.61050
H          8.63544       11.08564       11.22683
H          9.24610        9.54156       10.72105
H          9.94876       10.34429       12.10372
