46
CSD_code = YIZJIA | q = 0 | S = 0 | Stoichiometry = C22H20Cl2SiZr | MND = 12
Zr         3.78866        5.56296        6.44846
Si         2.87535        4.56480        3.41997
Cl         3.08944        4.90381        8.55660
Cl         5.29620        7.11274        7.33758
C          1.63629        3.25675        2.78982
C          1.50219        3.59504        1.30446
C          2.87411        3.99877        0.77546
C          3.42874        5.10426        1.67376
C          4.25365        4.03977        4.59623
C          5.45614        4.78427        4.76675
C          6.06560        4.45509        5.98825
C          5.23832        3.49664        6.64374
C          4.08908        3.26019        5.79004
C          3.08586        2.36432        6.21483
C          3.24133        1.71339        7.41358
C          4.37349        1.91957        8.22280
C          5.36505        2.79491        7.85816
C          2.29969        5.95955        4.55229
C          3.02979        7.17475        4.69392
C          2.67617        7.82165        5.88806
C          1.71592        7.00728        6.55672
C          1.50234        5.82708        5.73881
C          0.60902        4.83184        6.18807
C         -0.06204        5.02418        7.37021
C          0.12142        6.18600        8.14176
C          0.99510        7.17068        7.75545
H          0.66179        3.26472        3.27134
H          2.04801        2.25386        2.89833
H          1.09947        2.75201        0.74082
H          0.81685        4.43613        1.18806
H          3.53799        3.13366        0.81705
H          2.80976        4.32381       -0.26399
H          4.50264        5.20659        1.53953
H          2.97527        6.05645        1.40095
H          5.89838        5.42410        4.00918
H          7.04015        4.78482        6.32536
H          2.23302        2.16147        5.57902
H          2.48440        1.02028        7.74854
H          4.45357        1.37511        9.15115
H          6.23496        2.94624        8.48359
H          3.67681        7.59556        3.93036
H          2.99235        8.80959        6.19793
H          0.42362        3.95225        5.58463
H         -0.75292        4.27245        7.72151
H         -0.43820        6.29419        9.05816
H          1.13063        8.06351        8.35157
