46
CSD_code = YIZJEW | q = 0 | S = 0 | Stoichiometry = C22H20Cl2SiZr | MND = 12
Zr         0.76167        9.89475        2.92385
Cl        -1.48926       10.45577        3.11227
Cl         1.36144       12.11541        2.57136
Si         2.48120        7.06216        3.08689
C          1.98200        5.26346        3.48647
C          3.20055        4.45674        3.03667
C          4.45649        5.24324        3.39600
C          4.32534        6.65145        2.81492
C          2.06185        8.39864        4.34878
C          2.73031        9.64805        4.48161
C          1.91506       10.56870        5.15810
C          0.67617        9.92676        5.44716
C          0.75402        8.57919        4.91423
C         -0.37263        7.73376        5.00446
C         -1.49538        8.19204        5.64970
C         -1.54732        9.48015        6.21342
C         -0.48807       10.34735        6.11918
C          1.55039        7.93508        1.69913
C          0.14023        7.90394        1.50848
C         -0.26964        8.98756        0.71621
C          0.88428        9.76437        0.40634
C          2.01930        9.12497        1.04579
C          3.29392        9.72371        0.95144
C          3.43531       10.86727        0.20375
C          2.34168       11.45496       -0.45837
C          1.07867       10.92683       -0.36487
H          1.08224        4.91040        2.98827
H          1.83520        5.13248        4.55791
H          3.16468        4.32323        1.95429
H          3.21502        3.46800        3.49771
H          4.53455        5.30763        4.48246
H          5.35047        4.74100        3.02323
H          5.02733        7.33116        3.29195
H          4.56291        6.62897        1.75204
H          3.76457        9.82809        4.20738
H          2.20607       11.55833        5.48574
H         -0.32836        6.72334        4.61530
H         -2.36249        7.55418        5.73471
H         -2.44860        9.78765        6.72116
H         -0.53717       11.33869        6.54997
H         -0.50884        7.09439        1.82558
H         -1.26667        9.15400        0.32932
H          4.15159        9.25667        1.42111
H          4.40575       11.33207        0.11362
H          2.50814       12.34664       -1.04310
H          0.24103       11.38725       -0.87199
