62
CSD_code = YUSLOP | q = 0 | S = 0 | Stoichiometry = C18H37Cl2N2PRuSi | MND = 5
Ru         3.17248        5.38758       11.76864
Cl         5.10776        6.68481       11.70461
Cl         4.18873        3.85914       13.09883
P          1.62435        7.07250       11.79094
C          1.33124        4.68057       12.14759
N          0.50555        5.77474       12.13731
C         -0.78126        5.38662       12.42821
H         -1.61318        6.06091       12.47103
C         -0.74144        4.04682       12.61554
H         -1.53253        3.36801       12.85914
N          0.56139        3.63096       12.43988
C          1.05138        2.26919       12.54330
H          2.12407        2.33206       12.32065
C          0.36211        1.38162       11.51096
H         -0.69988        1.28038       11.72598
H          0.81111        0.39295       11.52301
H          0.48122        1.80200       10.51489
C          0.86756        1.75062       13.96647
H          1.38539        2.40197       14.66642
H          1.29326        0.75523       14.04965
H         -0.18603        1.70227       14.23592
C          0.83245        8.02179       10.37171
C         -0.35964        8.89511       10.74070
H         -0.81591        9.27871        9.82863
H         -0.05690        9.74874       11.34167
H         -1.11395        8.32564       11.27975
C          1.97537        8.84428        9.77389
H          2.85579        8.21064        9.64617
H          2.24602        9.68084       10.41326
H          1.68840        9.23929        8.80093
C          0.41465        6.95187        9.36321
H          0.13014        7.41862        8.42200
H         -0.43095        6.36972        9.72634
H          1.25399        6.27941        9.17543
C          1.66016        8.00081       13.42938
C          2.56235        9.21652       13.22356
H          2.06139        9.99111       12.64604
H          3.47535        8.91761       12.70333
H          2.84389        9.64250       14.18556
C          2.34862        7.02213       14.38979
H          2.52601        7.50341       15.35091
H          3.32504        6.70783       13.99671
H          1.73395        6.13596       14.56624
C          0.29864        8.38486       14.00206
H          0.43907        8.77812       15.00860
H         -0.35499        7.51727       14.07252
H         -0.19482        9.15155       13.41358
C          3.02169        4.68212       10.00634
H          2.10431        4.23310        9.60609
Si         4.56450        4.48423        8.92447
C          5.97168        3.65434        9.90878
H          6.87129        3.55488        9.30756
H          5.68414        2.66498       10.25681
H          6.21776        4.25021       10.78347
C          5.09258        6.17034        8.18882
H          5.32976        6.87429        8.97935
H          4.31167        6.60437        7.57019
H          5.97797        6.05150        7.57170
C          4.05451        3.35139        7.46801
H          3.25116        3.78727        6.88297
H          3.72476        2.37610        7.81005
H          4.89632        3.19799        6.80246
