46
CSD_code = ZIBQUW | q = 0 | S = 0 | Stoichiometry = C18H26SiTi | MND = 14
C          5.25440        0.69746        5.54927
C          4.36654       -0.13913        5.18869
C          3.60198       -1.36662        5.53685
C          3.07446       -1.23115        6.97159
C          2.43227       -1.56022        4.56188
C          4.55352       -2.56930        5.45425
C          7.98739        0.14582        6.85709
C          5.75087        1.59078        8.46807
C          6.81851        1.01980        2.88601
C          5.96983        1.55288        1.89097
C          5.03800        0.55298        1.53021
C          5.32539       -0.60192        2.29561
C          6.44342       -0.31787        3.10160
C          2.63025        2.03877        4.56384
C          3.66937        2.97359        4.78324
C          4.10316        3.43910        3.52478
C          3.32491        2.80684        2.53542
C          2.43656        1.91839        3.17213
Si         6.51869        1.35967        6.73506
Ti         4.59741        1.19735        3.63448
H          2.49764       -2.11202        7.24822
H          2.43774       -0.35355        7.06344
H          3.90490       -1.12165        7.66440
H          1.96268       -2.53034        4.71841
H          2.78696       -1.50305        3.52877
H          1.67934       -0.78705        4.71166
H          4.03709       -3.47967        5.75400
H          5.40621       -2.41750        6.11245
H          4.92155       -2.69543        4.43809
H          8.75173        0.52361        7.52948
H          8.44905       -0.00964        5.88653
H          7.67298       -0.82466        7.23041
H          6.44395        2.09319        9.13592
H          5.49049        0.63960        8.92249
H          4.84579        2.18870        8.42190
H          7.69019        1.50832        3.30690
H          6.09951        2.50901        1.39856
H          4.33494        0.59996        0.70553
H          4.88386       -1.58103        2.14447
H          6.94588       -1.01685        3.75778
H          2.01250        1.59888        5.33737
H          3.97832        3.35990        5.74750
H          4.81726        4.23831        3.35981
H          3.34383        3.02848        1.47650
H          1.64996        1.35035        2.68550
H          7.03062        2.67837        6.27029
