42
CSD_code = ZIXJAR | q = 1 | S = 0 | Stoichiometry = C17H20FeNO2Si(1+) | MND = 8
Fe         3.77247        2.88158        2.06365
Si         2.55165        2.35196        3.85102
O          3.29721        5.71380        2.40528
O          6.00527        3.22544        3.86412
N          0.58076        2.53783        3.60362
C          3.44116        4.59064        2.27047
C          5.11137        3.07493        3.17415
C          2.73401        0.54589        4.47925
C          2.31623        3.46239        5.36973
C          0.98264        3.51042        5.77814
C          0.59788        4.27123        6.86608
C          1.55668        4.99477        7.55873
C          2.88373        4.95797        7.16093
C          3.26418        4.19628        6.06858
C          0.03987        2.67190        4.96429
C          0.32184        3.77322        2.86711
C         -0.03377        1.41798        2.90512
C          3.05550        1.10844        0.93204
C          4.46199        1.06114        1.06492
C          5.00540        2.18629        0.38784
C          3.93430        2.94199       -0.12956
C          2.72296        2.29439        0.22982
H          2.53318       -0.20026        3.71755
H          2.10371        0.33499        5.33937
H          3.76099        0.40016        4.79940
H         -0.43641        4.30024        7.17445
H          1.26517        5.59106        8.40891
H          3.62294        5.52602        7.70334
H          4.29718        4.16957        5.75893
H         -0.03226        1.67595        5.40978
H         -0.96543        3.10238        4.93975
H         -0.74988        3.91967        2.72263
H          0.71872        4.61947        3.42229
H          0.81098        3.73439        1.89637
H          0.19227        0.48827        3.42023
H          0.35254        1.36629        1.89052
H         -1.11835        1.53417        2.85710
H          2.37677        0.31829        1.20480
H          5.02826        0.23230        1.45555
H          6.05183        2.36629        0.20712
H          4.01893        3.80550       -0.76788
H          1.74907        2.54859       -0.15673
