87
CSD_code = ZODPAM | q = 0 | S = 0 | Stoichiometry = C38H37BN6O2SeSiW | MND = 6
W          3.72787        3.00487       15.05427
Se         6.20828        4.44645       12.74140
Si         6.54127        0.56756        9.76644
N          2.26502        4.55948       15.45810
N          0.99511        4.27229       15.79443
N          2.02791        2.08966       14.07101
N          0.79310        2.10960       14.60318
N          2.78214        2.11220       16.81941
N          1.44948        2.15157       16.99633
O          5.94393        0.89099       14.47476
C          4.78565        3.80406       13.66481
C          5.03903        1.56557       14.72298
O          6.29190        4.28478       16.26791
C          1.14672        6.46582       15.69761
H          0.91237        7.51031       15.73088
C          6.39237        3.01962       11.59760
C          0.29010        5.40975       15.94887
C          2.38084        5.88486       15.39435
C          6.48964        2.06909       10.85347
C          5.63723        0.96899        8.15168
C          2.29613        1.12084       18.74749
H          2.39739        0.60695       19.68167
C          5.63636       -0.81301       10.69101
C         -0.07081        1.47777       13.78516
C          8.33848        0.09752        9.41436
C          3.65518        6.56395       15.04479
H          4.40944        6.38144       15.81115
H          3.49479        7.63510       14.95414
H          4.03996        6.17442       14.09834
B          0.53985        2.81215       15.94515
H         -0.59381        2.74539       16.25939
C          0.64411        1.04170       12.68419
H          0.26653        0.50326       11.83904
C          5.27120        3.83304       15.95565
C          3.31684        1.49143       17.87030
C          8.75613       -1.22934        9.44217
H          8.04552       -2.00405        9.69645
C          1.96246        1.44826       12.90600
C          3.15206        1.24886       12.04035
H          3.67658        2.19534       11.89274
H          2.85294        0.84297       11.07764
H          3.85363        0.55408       12.50317
C         -1.51938        1.31443       14.07393
H         -1.66928        0.77120       15.00556
H         -1.98908        0.76140       13.26510
H         -2.00658        2.28383       14.16658
C          6.01872       -1.14709       11.98702
H          6.84472       -0.62457       12.44534
C         -1.14753        5.45327       16.32248
H         -1.75435        4.93257       15.58341
H         -1.47492        6.48780       16.37981
H         -1.31107        4.97850       17.28862
C          9.27248        1.07748        9.09205
H          8.96350        2.11291        9.07139
C          1.12191        1.55794       18.15790
C          4.77948        1.26429       18.01593
H          5.15373        0.64100       17.20312
H          4.98301        0.76921       18.96229
H          5.31945        2.21137       17.98722
C          4.25485        1.51488        5.78801
H          3.71971        1.72570        4.87319
C          4.56527       -1.49323       10.12127
H          4.25574       -1.24737        9.11443
C          4.49030        1.75702        8.16135
H          4.14063        2.16420        9.09919
C          4.27691       -2.78926       12.11737
H          3.74738       -3.55177       12.67069
C          3.80348        2.02902        6.99242
H          2.91478        2.64370        7.01823
C         10.98230       -0.58251        8.83223
H         12.00564       -0.84590        8.60631
C          5.39696        0.73254        5.76051
H          5.75510        0.33184        4.82272
C         10.58309        0.74370        8.80443
H         11.29624        1.51727        8.55745
C          3.89039       -2.47441       10.82554
H          3.05984       -2.99359       10.36804
C         -0.26919        1.42786       18.66334
H         -0.72423        2.40790       18.79706
H         -0.26025        0.91118       19.61926
H         -0.88315        0.86344       17.96345
C          5.34525       -2.12428       12.69668
H          5.65105       -2.36467       13.70467
C          6.07995        0.46419        6.93331
H          6.97324       -0.14477        6.90485
C         10.06550       -1.56932        9.15289
H         10.37291       -2.60540        9.17781
