51
CSD_code = ZUXZEX | q = 0 | S = 0 | Stoichiometry = C15H31N3SiTi | MND = 8
Ti         1.12159        1.11494        3.47443
Si         1.41342        3.75588        4.58077
N          0.54381        2.95707        3.31687
N         -0.35551        0.03144        3.17531
N          2.06804        0.87943        1.90289
C          2.11288        2.13313        5.24164
C          1.23732        1.15916        5.78873
C          1.74867       -0.11994        5.51102
C          2.93907        0.04441        4.77425
C          3.15040        1.42135        4.59367
C          0.41260        4.68136        5.93758
C          2.79687        4.96533        4.01552
C         -0.54956        3.50680        2.54015
C         -1.86817        3.33127        3.31715
C         -0.67547        2.76473        1.19807
C         -0.33657        5.00003        2.24641
C         -1.30571       -0.25946        4.22480
C         -0.59000       -0.85987        2.06137
C          2.70047       -0.38237        1.60304
C          2.73273        1.95139        1.20530
H          0.40141        1.38095        6.44532
H          1.37891       -1.05967        5.90740
H          3.62899       -0.74981        4.51357
H          4.02533        1.87303        4.13917
H         -0.03542        5.58940        5.54738
H          1.05883        4.96863        6.76050
H         -0.38491        4.06762        6.34543
H          3.46687        5.19296        4.83827
H          2.38158        5.90465        3.66556
H          3.39241        4.54516        3.21034
H         -2.04451        2.26989        3.48255
H         -2.70461        3.75092        2.76197
H         -1.79880        3.83301        4.27898
H          0.16127        3.01003        0.54764
H         -1.59910        3.05003        0.69723
H         -0.67465        1.69077        1.38562
H          0.62862        5.14941        1.76883
H         -0.36017        5.57595        3.16661
H         -1.11707        5.36844        1.58431
H         -2.33885       -0.24191        3.83465
H         -1.23481        0.47620        5.02961
H         -1.14409       -1.26876        4.64884
H         -1.64117       -0.80373        1.72787
H         -0.40012       -1.91274        2.34295
H          0.05152       -0.59858        1.21793
H          2.61334       -0.62402        0.52913
H          2.23609       -1.19044        2.17752
H          3.78158       -0.35627        1.83776
H          2.63551        1.83450        0.11212
H          3.81546        1.96784        1.43268
H          2.29649        2.90628        1.50479
