76
CSD_code = ASUSEM | q = 0 | S = 0 | Stoichiometry = C23H46O2Si4W | MND = 9
W          8.34117        9.61303        9.03020
Si         8.29595       11.34463        7.29892
H          9.85537       10.22322        9.29777
H          7.90402       10.92847        5.89689
Si         7.05804       13.77739        5.78239
Si         8.34080       14.23140        8.69110
Si        10.24741       13.45457        6.23586
O          5.55609       10.98654        9.45182
O          7.62416       10.79323       11.83557
C          6.60561       10.49931        9.26738
C          7.95733       10.41874       10.78404
C          8.47641       13.24020        7.00902
C          5.43604       12.88181        6.25768
H          5.40514       12.61226        7.30650
H          5.31598       11.96632        5.68730
H          4.56743       13.50075        6.05583
C          6.73974       15.65853        5.72840
H          7.62900       16.21078        5.44739
H          6.39778       16.04014        6.68290
H          5.97279       15.88502        4.99341
C          7.39501       13.27946        3.96393
H          6.55475       13.56860        3.33947
H          7.51945       12.20787        3.85513
H          8.27911       13.75686        3.55824
C          8.95631       16.03465        8.50460
H          8.75488       16.58604        9.41822
H          8.47567       16.56719        7.69416
H         10.02718       16.07243        8.33781
C          6.53166       14.29733        9.29016
H          6.17863       13.30946        9.56519
H          5.84804       14.70052        8.55255
H          6.45624       14.91815       10.17789
C          9.34635       13.50648       10.13730
H         10.35038       13.91166       10.18790
H          9.42124       12.42451       10.08090
H          8.85740       13.74367       11.07716
C         10.47441       15.11807        5.32497
H         10.25151       15.96229        5.96577
H          9.83913       15.19294        4.44977
H         11.50238       15.22484        4.99142
C         11.59168       13.28693        7.57373
H         12.56671       13.13479        7.12120
H         11.39165       12.43949        8.22062
H         11.65974       14.16990        8.19735
C         10.63805       12.05342        4.99623
H         11.57248       12.24781        4.47865
H          9.87063       11.93186        4.24294
H         10.74396       11.10623        5.51482
C          7.50455        7.83226        7.83069
C          8.89652        7.90077        7.52294
C          9.62163        7.65569        8.73073
C          8.68166        7.43063        9.77919
C          7.37332        7.54612        9.22776
C          6.38958        7.83271        6.82435
H          6.24506        6.82651        6.42243
H          6.60903        8.49837        5.98998
H          5.45080        8.15298        7.27446
C          9.49664        7.91721        6.14508
H          9.64310        6.89331        5.79125
H         10.46580        8.41485        6.14190
H          8.84988        8.42959        5.43521
C         11.09618        7.38482        8.81524
H         11.28797        6.33043        8.59931
H         11.48074        7.60177        9.81015
H         11.65228        7.98474        8.09634
C          9.02757        6.95393       11.15906
H          8.20879        7.13209       11.85375
H          9.91132        7.46393       11.54146
H          9.23631        5.88085       11.14554
C          6.09384        7.19848        9.93408
H          5.25602        7.75028        9.49806
H          6.15499        7.48272       10.98860
C          5.81282        5.69675        9.83320
H          5.72318        5.39573        8.79137
H          4.88624        5.44793       10.34560
H          6.62194        5.12756       10.28603
