89
CSD_code = BUCMAN | q = 0 | S = 0 | Stoichiometry = C20H56Cl2N2P4Si4Zr | MND = 6
Zr         9.02407        2.04416       15.60630
Cl        10.94515        1.63834       16.98177
Cl         7.87260        1.26733       13.65256
P          9.19311       -0.72712       15.67394
P          9.48114        2.51322       21.23354
P         11.10162        1.50541       13.81935
P          5.29527        5.32759       15.21256
Si         6.54131        0.26229       16.80956
Si         7.88289        2.40271       18.55427
Si        11.16943        4.38881       14.79447
Si         8.18221        4.78945       14.22244
N          7.62324        1.56899       17.06752
N          9.52143        3.90320       14.84131
C          7.40871       -1.11191       15.77416
C          8.93666        1.42636       19.82753
C         12.23382        2.85786       14.30773
C          6.61322        4.02959       15.04520
C          9.72315       -2.06204       14.50237
C          9.76033       -1.47700       17.26086
C         10.68711        1.32423       21.99870
C          8.08250        2.20146       22.41255
C         12.35508        0.18743       13.45368
C         10.72823        2.02842       12.09208
C          3.89491        4.23924       15.76592
C          5.74082        5.96590       16.89661
C          5.97154       -0.60393       18.41907
C          4.95352        0.71729       15.83841
C          8.86501        3.98814       18.09845
C          6.22841        2.90082       19.38725
C         11.56110        5.71623       13.47528
C         11.82103        5.05267       16.47147
C          7.88807        4.63823       12.33105
C          8.31574        6.66135       14.59198
H          7.01597       -1.10823       14.75789
H          7.26876       -2.11016       16.19221
H          9.85295        1.09399       19.33713
H          8.41772        0.55019       20.21834
H         12.81169        2.51292       15.16440
H         12.92614        3.06881       13.49110
H          6.79958        3.53754       16.01184
H          6.20896        3.28587       14.35368
H          9.24620       -3.00492       14.76712
H          9.42434       -1.77617       13.49455
H         10.80409       -2.18123       14.53668
H          9.47009       -2.52554       17.32693
H         10.84343       -1.38893       17.33539
H          9.31370       -0.91678       18.08050
H         11.00984        1.70534       22.96603
H         10.24356        0.33764       22.12917
H         11.55830        1.24439       21.35168
H          8.36331        2.58273       23.39294
H          7.19745        2.73529       22.07906
H          7.85644        1.13903       22.49186
H         11.89433       -0.61617       12.88320
H         13.18231        0.60623       12.88194
H         12.73335       -0.21071       14.39394
H         10.16650        2.95961       12.13229
H         11.64461        2.17091       11.51911
H         10.10900        1.27207       11.61162
H          3.05577        4.86219       16.07156
H          3.57332        3.61733       14.93350
H          4.19496        3.60402       16.59763
H          6.66933        6.52669       16.84508
H          4.95302        6.63745       17.23511
H          5.84717        5.14851       17.60754
H          5.40064        0.07947       19.03426
H          5.33426       -1.45288       18.19738
H          6.80605       -0.96285       19.01104
H          4.29331        1.34411       16.42643
H          5.17902        1.23357       14.91044
H          4.40142       -0.18227       15.58448
H          9.12447        4.00492       17.03292
H          8.31411        4.89647       18.32826
H          9.78800        4.02156       18.67220
H          6.33731        3.80730       19.97306
H          5.44509        3.06218       18.65428
H          5.88405        2.11879       20.05333
H         12.63020        5.79503       13.31192
H         11.09349        5.49838       12.52215
H         11.21043        6.68669       13.80062
H         11.88467        4.27027       17.22198
H         12.81494        5.47124       16.34861
H         11.18300        5.84035       16.85883
H          6.96617        5.14371       12.05961
H          8.68982        5.09372       11.75834
H          7.79622        3.60048       12.02226
H          8.75698        6.85863       15.56333
H          8.93915        7.14293       13.84879
H          7.33932        7.13206       14.55325
