57
CSD_code = EGACUK | q = 0 | S = 0 | Stoichiometry = C16H32BFFeO2Si4 | MND = 8
Fe         5.78590        6.34459       14.08979
C          5.09826        5.28248       15.26511
O          4.66786        4.51119       16.00393
C          6.38662        4.84311       13.47715
O          6.72886        3.77851       13.19589
C          5.44877        8.35900       14.83821
H          4.64865        8.71156       15.46692
C          5.46337        8.40166       13.42382
H          4.68261        8.79136       12.79213
C          6.74471        7.97332       13.00062
H          7.11383        8.00516       11.98988
C          7.53405        7.73283       14.15444
H          8.58147        7.48397       14.15650
C          6.73837        7.97123       15.28516
H          7.06626        7.94445       16.31077
B          4.07856        6.12078       13.22200
F          3.08093        6.57953       13.96831
Si         3.60289        5.53031       11.40199
Si         1.62756        6.75822       10.87686
C          1.12465        6.58862        9.03954
H          0.20391        7.12078        8.81865
H          0.97260        5.54821        8.77280
H          1.89497        6.98464        8.38594
C          1.87849        8.62676       11.22642
H          2.72447        9.02242       10.67261
H          2.06445        8.79629       12.28265
H          1.00731        9.21636       10.95330
C          0.14252        6.20689       11.95010
H          0.37706        6.30923       13.00472
H         -0.10897        5.16601       11.77288
H         -0.74986        6.79594       11.75524
Si         3.14799        3.19875       11.54998
C          4.64692        2.11405       11.07302
H          4.42592        1.05471       11.17346
H          5.50153        2.32961       11.70440
H          4.94693        2.28715       10.04454
C          2.64613        2.75380       13.33980
H          2.37355        1.70781       13.45093
H          1.79860        3.34867       13.66609
H          3.46525        2.95344       14.02475
C          1.71700        2.70079       10.37827
H          1.96270        2.93838        9.34810
H          0.79928        3.22487       10.62357
H          1.50704        1.63580       10.42559
Si         5.27530        5.96141        9.78158
C          7.02903        5.39050       10.28577
H          7.07625        4.30791       10.33270
H          7.29621        5.76266       11.26995
H          7.79188        5.71979        9.58505
C          4.85226        5.06414        8.14504
H          5.56675        5.28738        7.35758
H          3.87016        5.35243        7.78518
H          4.84360        3.98765        8.27991
C          5.37617        7.82662        9.33977
H          6.20552        8.04806        8.67316
H          5.49491        8.44464       10.22378
H          4.46708        8.14807        8.84127
