61
CSD_code = FMSICR | q = 0 | S = 0 | Stoichiometry = C19H30CrO7Si4 | MND = 6
Cr        -1.44285        9.15351        6.10274
C         -1.80856        8.54187        7.82886
O         -2.03529        8.36854        8.94294
C         -3.14966        8.75021        5.46034
O         -4.09569        8.32116        4.96540
C         -1.76890       10.83861        6.85529
O         -1.97812       11.86541        7.32892
C         -1.14246       10.12193        4.52956
O         -1.03097       10.86697        3.66321
C          0.38016        9.07556        6.50726
O          1.49221        8.84335        6.68164
C         -1.10597        7.37532        5.24961
C         -1.56692        6.07448        5.62608
C         -2.40782        5.68252        6.65541
C         -2.55231        4.28899        6.54950
C         -1.80076        3.91271        5.47306
O         -1.21208        4.96926        4.90722
O         -0.37348        7.42411        4.16149
Si         0.40060        6.40550        3.07508
Si         1.50552        8.20224        1.97110
C          0.30293        9.27017        0.92644
C          2.37138        9.38190        3.20767
C          2.82546        7.53139        0.75945
Si         1.81734        4.99223        4.37518
C          1.62583        5.18846        6.27418
C          3.63475        5.43039        3.96266
C          1.62223        3.13981        3.92399
Si        -1.34760        5.48468        1.73447
C         -2.85340        6.66508        1.81378
C         -0.67242        5.42621       -0.05548
C         -2.00598        3.71124        2.06412
H         -2.86639        6.31778        7.38406
H         -3.13225        3.64967        7.18305
H         -1.61839        2.95037        5.03761
H         -0.51100        9.64920        1.53572
H         -0.13591        8.70219        0.11133
H          0.80587       10.12896        0.48900
H          3.12018        8.86230        3.79829
H          1.64650        9.79999        3.90091
H          2.86573       10.21203        2.70959
H          3.66028        7.07909        1.28274
H          3.22653        8.32467        0.13697
H          2.40880        6.77940        0.09730
H          2.53729        4.91731        6.80086
H          0.82433        4.57509        6.67577
H          1.40196        6.22091        6.53026
H          3.84306        5.27397        2.90919
H          4.32963        4.81309        4.52488
H          3.86073        6.46654        4.19202
H          1.79262        2.98546        2.86305
H          0.63491        2.75720        4.15641
H          2.34197        2.52885        4.46085
H         -3.23077        6.74554        2.83018
H         -3.67740        6.33587        1.18607
H         -2.57579        7.66552        1.49546
H         -0.29184        6.38880       -0.37822
H         -1.44173        5.12604       -0.76022
H          0.13968        4.71076       -0.13931
H         -2.72258        3.68584        2.87899
H         -1.19896        3.02669        2.30528
H         -2.50612        3.32030        1.18193
