90
CSD_code = GEYRUA | q = 0 | S = 0 | Stoichiometry = C27H54N3OScSi4 | MND = 8
Sc         1.95613       -0.22139       12.41119
Si         1.55052        3.26481       13.65881
Si         0.27068       -2.34998       11.96517
Si        -1.58890        0.01321       12.50901
H         -1.48344        1.19103       13.42614
Si         3.08983       -3.48500       11.58077
H          4.35251       -2.88788       11.01562
O          2.31048        0.50289       10.42487
N          2.75051        4.56158       13.85559
N         -0.03511       -0.65867       12.31710
N          2.01195       -2.19184       11.83973
C          2.43668        1.61951       13.81527
C          2.11041        0.51431       14.66849
C          3.13104       -0.45958       14.54667
C          4.09460        0.01824       13.60503
C          3.67320        1.29525       13.16344
C          0.99689        0.46357       15.67915
H          0.09207        0.92201       15.28919
H          1.28911        0.99005       16.59155
H          0.76908       -0.56797       15.94214
C          3.26449       -1.68672       15.40862
H          2.55593       -2.46217       15.11252
H          3.07905       -1.43179       16.45314
H          4.26945       -2.09498       15.33270
C          5.42409       -0.63715       13.33770
H          5.29995       -1.68327       13.05795
H          6.04867       -0.59363       14.23303
H          5.95967       -0.12739       12.53938
C          4.48053        2.25735       12.33540
H          5.21092        1.73856       11.71683
H          5.02371        2.94872       12.98296
H          3.84356        2.85697       11.68812
C          0.15460        3.69274       14.89093
H          0.45041        3.53926       15.92302
H         -0.73076        3.09444       14.70446
H         -0.12467        4.73801       14.78868
C          0.78047        3.15748       11.90594
H         -0.04094        3.84844       11.75218
H          0.38913        2.14014       11.79611
H          1.50797        3.32767       11.11833
C          2.90303        5.72011       13.11981
C          3.95984        6.42623       13.61220
H          4.31927        7.36898       13.24675
C          4.48306        5.69433       14.70234
H          5.31405        5.97868       15.31874
C          3.72756        4.56793       14.83569
C          2.00268        6.10975       12.00120
H          2.18553        5.51214       11.10887
H          2.18475        7.15232       11.75149
H          0.95865        5.99493       12.28277
C          3.85540        3.50829       15.87210
H          2.90269        3.33290       16.36720
H          4.58097        3.83021       16.61525
H          4.18908        2.56410       15.44662
C         -0.26523       -3.56434       13.33745
H          0.19570       -4.53478       13.18725
H         -1.33980       -3.70419       13.33904
H          0.02438       -3.20362       14.31961
C         -0.59543       -2.92376       10.35638
H         -0.18435       -2.44685        9.47201
H         -1.65365       -2.68869       10.39790
H         -0.49975       -3.99574       10.22701
C         -2.90764       -1.14582       13.24132
H         -3.11658       -1.97462       12.57249
H         -3.84142       -0.62055       13.41645
H         -2.57851       -1.56130       14.18741
C         -2.32023        0.67371       10.86207
H         -1.74193        1.50158       10.46166
H         -3.33526        1.02909       11.00839
H         -2.35291       -0.10155       10.10172
C          2.47536       -4.75590       10.29641
H          1.67376       -5.36016       10.70901
H          3.27359       -5.42953       10.00060
H          2.09495       -4.28124        9.39785
C          3.59838       -4.52579       13.10234
H          4.25089       -3.97768       13.77372
H          4.12877       -5.42176       12.79321
H          2.73054       -4.83961       13.67465
C          3.46713        0.01112        9.73316
H          4.11720       -0.48431       10.46130
H          3.98789        0.85739        9.25951
C          2.90731       -0.94364        8.68996
H          3.61538       -1.16949        7.89674
H          2.60242       -1.86287        9.19116
C          1.68603       -0.16709        8.20372
H          0.90849       -0.81721        7.81101
H          1.96959        0.54124        7.42355
C          1.22782        0.57085        9.46765
H          1.00903        1.62581        9.26125
H          0.35735        0.09708        9.93648
