127
CSD_code = HOTJUV | q = 0 | S = 0 | Stoichiometry = C43H75N4Si4Y | MND = 4
Y         21.60338        8.94560       15.67953
Si        21.82273        8.81443       19.16612
Si        21.21599       11.48822       17.93591
Si        24.65192       10.29191       14.89318
Si        22.52233       10.72916       12.81911
N         21.39074        6.71775       14.89557
N         19.53803        7.86606       15.21615
N         21.50863        9.79546       17.78256
N         23.04384       10.05212       14.31750
C         20.05935        6.70195       14.83025
C         22.28860        5.81984       14.18959
C         23.39153        5.29014       15.11441
C         22.95579        6.62738       13.06836
C         18.17244        8.08355       15.66226
C         17.56785        9.33775       15.01869
C         18.21527        8.30392       17.18009
C         19.24811        5.51316       14.37670
C         19.25302        5.09298       13.03130
C         18.48259        4.00210       12.62926
C         17.73637        3.27215       13.52818
C         17.74160        3.66144       14.84945
C         18.45868        4.77680       15.28234
C         20.01412        5.69875       11.90649
C         19.64079        6.94111       11.38562
C         20.29862        7.45245       10.27926
C         21.30633        6.74157        9.64293
C         21.62173        5.48381       10.12815
C         20.98471        4.94418       11.23845
C         18.49942        7.69119       11.99381
C         21.99481        7.30047        8.43522
C         21.38258        3.55401       11.65277
C         18.27277        5.04452       16.73327
C         16.99989        5.36301       17.21936
C         16.80955        5.50798       18.58764
C         17.83950        5.32033       19.49365
C         19.08310        4.95135       19.00018
C         19.30517        4.79474       17.64185
C         15.79980        5.55199       16.33247
C         17.62201        5.50753       20.96383
C         20.63237        4.31398       17.14935
C         22.54679        7.15863       18.51974
C         20.28031        8.37565       20.21850
C         23.09008        9.54929       20.39834
C         19.76677       11.93844       19.10683
C         22.71634       12.51936       18.53187
C         20.75762       12.10255       16.17902
C         24.80725        9.22365       16.47697
C         25.08026       12.09636       15.37260
C         26.02218        9.72860       13.67719
C         22.97051       12.57487       12.57501
C         23.17098        9.83973       11.24872
C         20.60776       10.59758       12.79180
H         21.74207        4.96810       13.77288
H         23.01148        4.57635       15.83903
H         23.85517        6.12050       15.64765
H         24.15366        4.79361       14.51804
H         22.20292        7.06671       12.42109
H         23.54321        7.43761       13.50606
H         23.60638        5.99452       12.46898
H         17.53925        7.22418       15.41996
H         17.34793        9.19448       13.96508
H         18.25988       10.17379       15.12296
H         16.63986        9.59118       15.52624
H         18.68675        7.45811       17.67060
H         17.21210        8.42651       17.58221
H         18.80483        9.19680       17.39934
H         18.48686        3.73123       11.58342
H         17.16118        2.41751       13.20495
H         17.17493        3.10321       15.58050
H         20.00764        8.41893        9.89270
H         22.37904        4.89655        9.62758
H         17.62311        7.04813       12.07881
H         18.77521        8.02061       12.99116
H         18.24189        8.55950       11.39227
H         22.07892        8.38226        8.50551
H         22.98964        6.87565        8.32516
H         21.42359        7.06357        7.53673
H         22.46365        3.49268       11.77057
H         21.09687        2.84520       10.87497
H         20.91078        3.24344       12.58066
H         15.82370        5.76391       18.95035
H         19.89215        4.76179       19.69143
H         16.05317        5.52767       15.27638
H         15.07478        4.76032       16.52386
H         15.31485        6.50136       16.55583
H         16.57380        5.37611       21.22179
H         18.21909        4.80104       21.53635
H         17.92119        6.51420       21.25711
H         21.26606        4.00880       17.97850
H         21.12468        5.11454       16.60429
H         20.50535        3.46933       16.47197
H         23.63243        7.16218       18.52999
H         22.21098        6.97118       17.49450
H         22.21997        6.32475       19.13157
H         19.65928        7.63353       19.72907
H         20.57446        7.97509       21.18397
H         19.66703        9.25087       20.39866
H         23.40902        8.80924       21.12564
H         22.65165       10.37708       20.94439
H         23.97616        9.92148       19.89578
H         18.85410       11.40917       18.85239
H         20.01767       11.68669       20.13140
H         19.55114       13.00163       19.07519
H         22.80501       12.48747       19.61204
H         22.62328       13.56191       18.24321
H         23.64466       12.14246       18.11633
H         20.51154       13.16053       16.18196
H         21.59188       11.96230       15.49236
H         19.88788       11.57215       15.78882
H         24.60889        8.17209       16.26588
H         24.11169        9.56624       17.24254
H         25.80780        9.28193       16.89570
H         24.24097       12.58736       15.85325
H         25.92351       12.13756       16.05534
H         25.34201       12.67922       14.49658
H         27.00152        9.76557       14.14348
H         26.04900       10.37961       12.81031
H         25.86364        8.71535       13.32235
H         22.43203       13.00491       11.73624
H         22.74196       13.16891       13.45320
H         24.03035       12.68356       12.37345
H         24.24061        9.67614       11.30641
H         22.97884       10.43777       10.36287
H         22.69971        8.87396       11.10359
H         20.24345       10.41941       11.78583
H         20.27405        9.76397       13.41818
H         20.13628       11.50762       13.15037
