122
CSD_code = ILAYAV | q = 0 | S = 0 | Stoichiometry = C32H78N7Si4Y | MND = 5
Y         13.73242       13.38307       12.39900
Si        12.61204       10.91741       16.82557
Si        14.89040        9.20653       15.49239
Si        11.87171       18.25505       11.30560
Si        12.56490       18.03790       14.36537
N         12.98215       11.43845       13.48184
N         14.67580       12.50585       14.47374
N         13.78045       10.56352       15.56264
N         14.09172       15.70427       12.41201
N         11.96486       15.05319       12.62206
N         12.43586       17.40392       12.73236
N         14.43874       12.70153       10.42581
C         13.82103       11.50013       14.50129
C         12.07391       10.32056       13.31210
C         10.64919       10.84540       13.11703
C         12.49365        9.48598       12.09614
C         15.61164       12.70746       15.56557
C         17.05313       12.64517       15.04822
C         15.36460       14.06133       16.23486
C         11.89724       12.66768       16.58393
C         13.45405       10.82085       18.53513
C         11.16182        9.67054       16.84777
C         15.83683        9.24048       13.83831
C         16.18899        9.22062       16.89576
C         13.92029        7.56964       15.64145
C         12.82754       16.05165       12.57957
C         15.13304       16.69582       12.22267
C         15.66900       16.62495       10.78778
C         16.26930       16.43882       13.21564
C         10.55396       15.30718       12.85327
C          9.72144       14.80610       11.66763
C         10.09159       14.60958       14.13442
C         12.88810       19.85199       11.06111
C         10.03324       18.76864       11.41358
C         12.06321       17.13495        9.77546
C         13.96544       19.32897       14.54019
C         12.89703       16.61885       15.59356
C         10.94126       18.91412       14.85146
C         15.73200       12.08034       10.18259
C         16.76349       12.51597       11.22788
C         15.63526       10.54093       10.17715
C         13.67598       12.82469        9.19270
C         14.05776       14.09700        8.40879
C         12.16960       12.83778        9.47030
H         12.09703        9.67633       14.20014
H         10.63680       11.56187       12.29454
H          9.96780       10.02825       12.88769
H         10.30424       11.34223       14.02085
H         13.43287        8.97887       12.29615
H         11.73660        8.73819       11.86764
H         12.62809       10.13792       11.23401
H         15.47732       11.92087       16.31891
H         17.75200       12.79156       15.86960
H         17.25171       11.68005       14.58986
H         17.21603       13.42694       14.30830
H         16.11983       14.24874       16.99601
H         15.40997       14.84786       15.48569
H         14.38487       14.07844       16.70267
H         12.20309       13.33883       17.38130
H         12.23028       13.09395       15.64177
H         10.81129       12.65258       16.57753
H         12.78554       11.21187       19.29552
H         13.68243        9.79572       18.80588
H         14.37467       11.39326       18.58115
H         10.56734        9.82248       17.74377
H         10.49936        9.78361       15.99555
H         11.50815        8.64311       16.85984
H         16.91082        9.19834       13.99405
H         15.57371        8.39989       13.20313
H         15.61300       10.15430       13.29734
H         15.73150        9.22460       17.87825
H         16.80094        8.32591       16.82840
H         16.85604       10.07501       16.83866
H         13.51965        7.43927       16.64119
H         13.09481        7.50780       14.93957
H         14.57970        6.72967       15.44745
H         14.73201       17.70275       12.39408
H         15.93480       15.59659       10.54675
H         14.90953       16.95916       10.08723
H         16.54681       17.25886       10.67756
H         15.92079       16.59214       14.23433
H         16.61369       15.40894       13.11292
H         17.10252       17.11337       13.02759
H         10.38530       16.38569       12.96687
H          8.66610       15.00915       11.83958
H         10.02666       15.30312       10.75074
H          9.85461       13.73223       11.54790
H          9.01623       14.72364       14.25853
H         10.33400       13.55137       14.07605
H         10.59050       15.03652       14.99910
H         13.95827       19.67135       11.06981
H         12.63985       20.30643       10.10725
H         12.66598       20.58196       11.83237
H          9.83638       19.41101       12.26398
H          9.76158       19.32366       10.52045
H          9.36490       17.91613       11.48182
H         12.35645       16.13474       10.07769
H         11.13285       17.05770        9.22055
H         12.81399       17.51262        9.08774
H         14.95403       18.88441       14.48641
H         13.90933       20.09683       13.77661
H         13.88371       19.82361       15.50352
H         13.75469       16.83551       16.22364
H         12.04967       16.45321       16.25256
H         13.09687       15.69040       15.06587
H         10.95302       19.14451       15.91201
H         10.82496       19.85292       14.32096
H         10.06307       18.30748       14.65670
H         16.11479       12.38903        9.19249
H         16.40594       12.25365       12.22771
H         17.71549       12.01623       11.05250
H         16.92385       13.59321       11.17476
H         15.25699       10.20070       11.13661
H         14.95265       10.20474        9.40032
H         16.61031       10.09383        9.99513
H         13.88345       11.95935        8.53683
H         15.11175       14.07867        8.14191
H         13.47304       14.17730        7.49479
H         13.87654       14.96933        9.02988
H         11.92789       13.66626       10.14236
H         11.61393       12.96436        8.54185
H         11.86189       11.89905        9.93180
