79
CSD_code = JOBBAF | q = 0 | S = 0 | Stoichiometry = C18H52CrN4Si4 | MND = 4
Cr        11.84805        1.50526       14.23236
Si         9.85636       -0.25571       12.02595
Si        10.67141        2.56069       11.44791
Si        11.40577       -0.72972       17.16245
Si         9.72216        1.49297       16.24770
N         13.59564        2.63904       15.36186
N         13.51332        0.35069       13.54440
N         10.75228        1.15832       12.42075
N         11.14667        0.53873       16.02145
C         13.94727        0.69980       12.19205
H         14.73488        0.01828       11.84415
H         14.32963        1.71646       12.14623
H         13.08561        0.62972       11.53107
C         13.14125       -1.05594       13.52595
H         12.40162       -1.20343       12.74836
H         12.69296       -1.31103       14.47618
H         14.00851       -1.70130       13.33175
C         14.59920        0.54966       14.50307
H         15.54271        0.12244       14.12721
H         14.32162        0.02666       15.41775
C         14.81445        2.02605       14.82330
H         15.64917        2.12401       15.53544
H         15.09893        2.56048       13.91302
C         13.47349        2.33118       16.78331
H         14.32074        2.74328       17.35118
H         13.42156        1.25954       16.93072
H         12.54813        2.75345       17.16516
C         13.68590        4.09235       15.23709
H         12.76941        4.54403       15.61062
H         13.81583        4.38802       14.19801
H         14.53037        4.49043       15.81761
C          9.05803        3.59602       11.51226
H          8.25837        3.09021       10.98283
H          9.18805        4.57213       11.05308
H          8.72319        3.75173       12.53231
C         12.08022        3.68375       12.12215
H         12.62622        3.12584       12.88564
H         11.68605        4.58958       12.57032
H         12.78017        3.98077       11.34756
C         11.02518        2.29660        9.58317
H         11.93803        1.73541        9.41076
H         11.11560        3.24355        9.05994
H         10.21173        1.74729        9.12307
C          9.80674       -1.45329       13.51310
H         10.34177       -2.37590       13.31381
H          8.78442       -1.72548       13.75071
H         10.23995       -0.98473       14.39003
C         10.60249       -1.22689       10.53465
H         10.57362       -0.62706        9.63183
H         10.02774       -2.12798       10.34310
H         11.63460       -1.52953       10.68636
C          8.05881        0.10665       11.47157
H          7.54177        0.75109       12.17440
H          7.48234       -0.80837       11.37570
H          8.04806        0.60231       10.50626
C         12.70323       -2.09105       16.75991
H         12.37936       -2.75554       15.96695
H         12.82005       -2.70074       17.65114
H         13.69025       -1.71574       16.51072
C         12.04614       -0.08404       18.86483
H         11.70940        0.92414       19.07141
H         13.13099       -0.08670       18.92640
H         11.68251       -0.71792       19.66768
C          9.82920       -1.74644       17.53533
H          9.06569       -1.12953       17.99605
H         10.03948       -2.57034       18.21091
H          9.40845       -2.16580       16.62779
C          9.35070        2.05014       18.04739
H          9.18743        1.19494       18.69164
H          8.45613        2.66371       18.08347
H         10.16015        2.63240       18.47613
C          8.08120        0.77950       15.57097
H          8.13779        0.67565       14.49366
H          7.24425        1.43192       15.80351
H          7.86091       -0.19614       15.98720
C         10.02513        3.10018       15.26106
H         10.59002        3.84493       15.81318
H          9.08039        3.55589       14.98640
H         10.54568        2.85479       14.32852
