82
CSD_code = KADCUN | q = 0 | S = 0 | Stoichiometry = C24H53LaSi4 | MND = 7
La        -2.57824      -15.69052       -0.13599
Si        -5.95468      -16.78416       -1.05074
Si        -5.25809      -16.76710        2.11272
Si         0.05361      -18.10336        0.86768
Si        -0.47489      -17.82342       -2.29786
C         -1.44780      -13.23430       -0.38592
C         -2.50201      -13.00355       -1.34288
C         -3.66260      -12.65218       -0.63424
C         -3.36034      -12.64603        0.75177
C         -2.00980      -12.99123        0.91907
C          0.02432      -13.13093       -0.71163
C         -2.30736      -12.92934       -2.83447
C         -4.99158      -12.25950       -1.20421
C         -4.32684      -12.25347        1.82763
C         -1.22682      -12.89364        2.20216
C         -5.07818      -15.96840        0.41127
C         -1.18375      -17.84719       -0.54246
C         -5.20431      -18.49915       -1.46513
C         -5.68927      -15.67536       -2.59644
C         -7.84313      -17.04168       -0.86259
C         -4.70232      -18.59808        2.06867
C         -4.10542      -15.84288        3.34476
C         -7.01004      -16.70863        2.88450
C          0.91360      -16.44254        1.30133
C          1.43880      -19.38753        0.56560
C         -0.88932      -18.64753        2.44489
C         -1.81109      -17.16282       -3.51364
C          1.01887      -16.63617       -2.43020
C          0.06480      -19.53098       -2.97186
H          0.23239      -13.47370       -1.72501
H          0.64752      -13.69667       -0.01801
H          0.33614      -12.08417       -0.65245
H         -1.53046      -13.61485       -3.17743
H         -2.00893      -11.91947       -3.12653
H         -3.22788      -13.16573       -3.36764
H         -5.80458      -12.80879       -0.72721
H         -5.03184      -12.44473       -2.27462
H         -5.17240      -11.19550       -1.03985
H         -5.22910      -12.86749        1.79812
H         -4.63311      -11.21395        1.69862
H         -3.87390      -12.35131        2.81120
H         -1.74595      -13.37419        3.03329
H         -1.07771      -11.84535        2.47077
H         -0.24271      -13.34956        2.10376
H         -5.43156      -14.93326        0.48044
H         -1.90692      -18.67108       -0.49477
H         -4.11675      -18.47317       -1.49553
H         -5.55249      -18.84912       -2.43227
H         -5.49735      -19.24007       -0.73071
H         -4.65420      -15.34109       -2.67707
H         -6.31752      -14.79228       -2.55506
H         -5.93539      -16.20377       -3.51205
H         -8.33286      -16.13383       -0.52623
H         -8.05628      -17.81706       -0.13441
H         -8.30488      -17.33615       -1.80023
H         -5.50530      -19.23267        1.71064
H         -4.42783      -18.95207        3.05726
H         -3.84594      -18.74300        1.41495
H         -3.06975      -15.81731        2.99604
H         -4.10764      -16.31785        4.32126
H         -4.43148      -14.81747        3.48477
H         -7.02716      -17.14533        3.87864
H         -7.72167      -17.25259        2.27338
H         -7.36797      -15.68759        2.96942
H          0.19272      -15.69158        1.62981
H          1.45751      -16.04603        0.45019
H          1.62951      -16.57410        2.10734
H          2.08755      -19.07850       -0.24707
H          1.02242      -20.35452        0.30372
H          2.05809      -19.52523        1.44689
H         -1.66457      -17.93664        2.71940
H         -0.21528      -18.73989        3.29046
H         -1.36442      -19.61243        2.30442
H         -2.72898      -17.73976       -3.44889
H         -1.46700      -17.22484       -4.54174
H         -2.05881      -16.11793       -3.32047
H          1.88583      -17.04328       -1.92203
H          0.79846      -15.66943       -1.98688
H          1.29746      -16.46780       -3.46574
H          0.85332      -19.95998       -2.36410
H          0.43302      -19.46401       -3.99115
H         -0.76576      -20.22957       -2.96943
