95
CSD_code = KADCOH | q = 0 | S = 0 | Stoichiometry = C28H61LaOSi4 | MND = 8
La         2.25958        9.91725        7.61353
Si         5.89994        9.72308        6.36799
Si         5.48859        9.31431        9.50697
Si         1.50782       13.01443        9.69956
Si        -0.50312       10.52971       10.08859
C          0.69806        8.70576        5.05445
C          1.26603       10.04817        5.07873
C          0.14448       10.93894        5.32255
C         -0.99506       10.17717        5.49163
C         -0.65536        8.79915        5.32159
C          4.81011        9.05581        7.76121
C          0.63240       11.51828        8.94839
C          1.46641        7.48526        4.63223
C          2.35912       10.45051        4.10035
C          0.21400       12.43709        5.24999
C         -2.37271       10.70239        5.74617
C         -1.65210        7.68185        5.37139
C          0.40360        6.55840        8.41169
C          0.59672        5.08774        8.76375
C          1.77677        4.71974        7.86970
C          2.61788        5.99230        7.93130
C          7.79522        9.71950        6.64344
C          5.64864        8.64340        4.79779
C          5.46778       11.55505        5.99235
C          5.89186       11.15290        9.84005
C          4.16037        8.76925       10.78166
C          7.05164        8.29143        9.94216
C          2.78361       13.70779        8.44163
C          0.35838       14.49269       10.10826
C          2.44600       12.57503       11.30643
C         -1.61739       11.53959       11.27488
C         -1.67387        9.47557        8.99546
C          0.46963        9.31665       11.21446
O          1.71069        7.08476        8.13534
H          4.72062        7.97224        7.61360
H          0.00266       11.89410        8.13212
H          2.50596        7.53524        4.96340
H          1.02289        6.57638        5.03606
H          1.46636        7.39589        3.54268
H          1.96262       10.37269        3.08316
H          2.66508       11.48598        4.24739
H          3.24028        9.81444        4.16021
H          0.11683       12.76962        4.21349
H         -0.59688       12.89034        5.81715
H          1.16050       12.81770        5.63864
H         -2.80045       11.11584        4.83054
H         -3.03152        9.91272        6.09737
H         -2.35553       11.49580        6.49327
H         -2.39144        7.80283        4.57852
H         -1.16997        6.71670        5.22926
H         -2.18957        7.66556        6.32187
H         -0.03535        7.14185        9.22183
H         -0.21473        6.66861        7.51454
H          0.86879        4.97934        9.81418
H         -0.29346        4.49677        8.56448
H          2.32542        3.84819        8.21760
H          1.43500        4.53906        6.85027
H          3.31682        5.96034        8.77683
H          3.18207        6.16862        7.01220
H          8.16077        8.72115        6.86012
H          8.32571       10.07797        5.76592
H          8.07145       10.35812        7.47536
H          5.77888        9.21702        3.88623
H          6.37230        7.83523        4.77701
H          4.66264        8.19002        4.76559
H          5.97563       11.90402        5.09827
H          4.40005       11.71395        5.84690
H          5.78737       12.19120        6.81172
H          5.06325       11.80236        9.57394
H          6.11860       11.32350       10.88766
H          6.75556       11.46759        9.26514
H          4.57473        8.70804       11.78352
H          3.33083        9.47219       10.81445
H          3.75951        7.78811       10.54105
H          7.90142        8.59901        9.34407
H          7.32800        8.40409       10.98656
H          6.89151        7.23308        9.75945
H          2.28826       14.05122        7.53851
H          3.31914       14.55737        8.85397
H          3.52495       12.96410        8.15198
H          0.91960       15.35774       10.44947
H         -0.20967       14.79658        9.23464
H         -0.35266       14.23493       10.88491
H          3.04269       13.41321       11.65228
H          1.74988       12.32237       12.09871
H          3.11565       11.73214       11.17034
H         -2.18937       12.28600       10.73385
H         -2.32314       10.90568       11.80386
H         -1.02183       12.05861       12.01856
H         -2.01352        8.57743        9.50298
H         -2.55750       10.04358        8.72677
H         -1.18318        9.17988        8.07079
H          1.10087        9.85589       11.91222
H         -0.20952        8.70702       11.80397
H          1.10483        8.64385       10.64204
