131
CSD_code = KARPEY | q = 0 | S = 0 | Stoichiometry = C38H80Cl2N6Si4Zr | MND = 6
Zr        14.69865        9.63297        5.01460
Si        10.78965       12.21039        6.80470
Si        11.36083        9.75156        8.65729
Si        18.05011       10.16349        1.42290
Si        18.74335       12.25743        3.64723
Cl        14.45054        8.12122        3.21241
Cl        14.85327        7.84565        6.55534
N         12.57982        9.77993        5.27020
N         13.96891       10.94239        6.52304
N         11.69510       10.78114        7.27032
N         15.49997       11.12832        3.73191
N         16.82286        9.71038        4.77608
N         17.76546       10.97313        2.95885
C         10.99817        9.19766        3.51022
C          9.78948        8.33842        3.15166
C         10.08142        6.86778        3.43010
C         10.44142        6.67591        4.89965
C         11.65366        7.52914        5.25885
C         11.37938        9.01727        4.98485
C         14.69251       13.10666        7.41014
C         15.30767       13.80630        8.61802
C         16.60863       13.12376        9.02977
C         16.35801       11.65223        9.34627
C         15.73159       10.94012        8.15098
C         14.42936       11.62420        7.71061
C         12.73628       10.47372        6.38542
C         11.42459       12.82252        5.11689
C          8.93196       11.79951        6.66160
C         10.99337       13.61660        8.08663
C          9.90489        8.55773        8.31836
C         10.80686       10.88837       10.08751
C         12.87141        8.76622        9.24602
C         14.89258       13.44211        3.21058
C         14.31987       14.35921        2.13457
C         12.98708       13.82053        1.62341
C         13.16291       12.40914        1.07074
C         13.74736       11.48091        2.13147
C         15.08082       12.01657        2.67239
C         18.36788        8.77436        6.41153
C         19.52936        7.80759        6.62168
C         19.16253        6.41726        6.11372
C         18.79709        6.48122        4.63441
C         17.63136        7.44177        4.42293
C         17.98135        8.85097        4.92926
C         16.70635       10.58118        3.78727
C         19.43828        8.85422        1.55859
C         18.66934       11.48414        0.19126
C         16.49215        9.36780        0.68878
C         18.12863       12.62630        5.41176
C         20.57500       11.72805        3.72000
C         18.62725       13.86054        2.60898
H         10.77847       10.25031        3.31413
H         11.85681        8.90356        2.89834
H          9.54095        8.47682        2.09729
H          8.92605        8.65579        3.74330
H          9.21218        6.25830        3.17294
H         10.92023        6.54563        2.81075
H         10.66280        5.62517        5.09574
H          9.58907        6.96243        5.52160
H         12.51072        7.21628        4.65108
H         11.92350        7.39739        6.31039
H         10.55498        9.36170        5.62671
H         15.37096       13.16894        6.55524
H         13.75528       13.58965        7.12727
H         15.49559       14.85580        8.38058
H         14.60360       13.77469        9.45356
H         17.03115       13.62580        9.90298
H         17.33010       13.20134        8.21467
H         15.68458       11.57829       10.20404
H         17.29597       11.16328        9.61678
H         16.41657       10.94782        7.29180
H         15.52129        9.89573        8.39969
H         13.67800       11.54930        8.51205
H         12.48059       12.58604        5.01089
H         11.29960       13.89559        5.00330
H         10.89618       12.34246        4.29880
H          8.72288       11.06636        5.88851
H          8.37534       12.69832        6.41668
H          8.53781       11.41809        7.59741
H         11.93625       13.57083        8.62057
H         10.19958       13.58308        8.82440
H         10.93641       14.58700        7.60259
H          9.13615        9.00440        7.69588
H          9.43846        8.27848        9.25852
H         10.22888        7.64117        7.83665
H         11.53315       11.65809       10.32427
H         10.66342       10.29085       10.98177
H          9.86465       11.37911        9.87237
H         13.54142        9.37060        9.85085
H         13.44748        8.36034        8.41961
H         12.55226        7.92860        9.85960
H         14.21404       13.39946        4.06664
H         15.85192       13.82395        3.56496
H         14.18580       15.36482        2.53942
H         15.02489       14.42651        1.30192
H         12.59419       14.47888        0.84543
H         12.26750       13.80145        2.44363
H         13.83484       12.44123        0.20924
H         12.20208       12.01946        0.72873
H         13.06014       11.38315        2.98333
H         13.90538       10.48174        1.71496
H         15.83130       12.03447        1.86687
H         17.49368        8.43141        6.97391
H         18.64161        9.76962        6.77118
H         20.40983        8.17037        6.08370
H         19.78162        7.76282        7.68330
H         19.99843        5.73066        6.26549
H         18.30651        6.04398        6.67840
H         18.52238        5.48803        4.27434
H         19.66465        6.81938        4.06135
H         17.35723        7.49352        3.36553
H         16.75824        7.07981        4.97801
H         18.82400        9.25040        4.34574
H         19.06376        7.89185        1.89125
H         20.22896        9.15432        2.23880
H         19.89049        8.70270        0.58294
H         17.99157       12.32494        0.09326
H         18.77304       11.03393       -0.79051
H         19.64093       11.87446        0.47166
H         15.85656       10.09691        0.19441
H         15.89315        8.86281        1.44068
H         16.76911        8.62614       -0.05496
H         18.63447       12.00440        6.14408
H         17.06348       12.41958        5.48310
H         18.29672       13.66288        5.68961
H         20.73830       10.86869        4.36323
H         21.17762       12.54334        4.10706
H         20.95499       11.48283        2.73408
H         17.67895       13.96522        2.09295
H         19.41082       13.89260        1.86028
H         18.75578       14.73435        3.24094
