80
CSD_code = LIBTUL | q = 0 | S = 0 | Stoichiometry = C22H49N4Si4V | MND = 4
V         10.60514       11.54490        1.62913
Si         8.16728       13.39316        2.20242
Si         7.95168       11.58244       -0.20885
Si        12.91508       11.93729        3.84233
Si        12.30591       13.96813        1.66850
N         11.93538       12.48876        2.51382
N          8.81297       12.14833        1.17986
N         10.14269       10.03959        2.55123
N         11.56615       10.64589        0.35694
C          9.09813       13.47562        3.87536
C          6.33389       13.07319        2.68275
C          8.21366       15.13453        1.39576
C          8.99466       11.82224       -1.80686
C          6.31310       12.47030       -0.63535
C          7.44375        9.74169        0.03918
C         13.75048       13.37411        4.79513
C         11.95528       10.98329        5.19161
C         14.30037       10.74930        3.24447
C         11.86395       15.55636        2.64322
C         14.17432       14.13221        1.22830
C         11.39351       13.96890       -0.01341
C          9.05453       10.10704        3.50735
C          8.38812        8.75091        3.76868
C          9.42515        7.76075        4.28345
C         10.59861        7.80500        3.35553
C         10.83570        8.86539        2.56254
C         10.96147        9.72789       -0.43639
C         11.59761        9.04448       -1.44571
C         12.94688        9.27514       -1.70026
C         13.58697       10.19533       -0.87655
C         12.88528       10.83790        0.11791
H          8.60785       12.86940        4.63131
H         10.12632       13.13650        3.77553
H          9.11025       14.49535        4.24873
H          6.12435       13.44818        3.67963
H          5.65918       13.57734        2.00151
H          6.08612       12.01654        2.66916
H          9.22311       15.51903        1.29943
H          7.77439       15.11702        0.40349
H          7.64462       15.84232        1.99120
H         10.06152       11.70051       -1.64639
H          8.69496       11.11205       -2.57174
H          8.83633       12.81753       -2.21217
H          6.42621       13.54812       -0.64034
H          5.97662       12.17233       -1.62344
H          5.52446       12.22510        0.06516
H          6.42297        9.67782        0.40378
H          7.48769        9.18541       -0.89233
H          8.07732        9.23710        0.76306
H         14.39666       12.98243        5.57414
H         14.35573       14.00361        4.15409
H         13.01067       14.00698        5.27425
H         11.09366       11.53586        5.55199
H         11.63098       10.01134        4.83858
H         12.61096       10.81898        6.04136
H         13.88839        9.90907        2.69330
H         15.02399       11.24477        2.60501
H         14.84154       10.34906        4.09588
H         12.55177       15.70996        3.46713
H         11.93101       16.42682        1.99725
H         10.86154       15.52311        3.05282
H         14.40011       13.72050        0.24906
H         14.46483       15.17758        1.21203
H         14.80968       13.63045        1.94919
H         10.36423       13.63322        0.08743
H         11.37666       14.97089       -0.43308
H         11.89596       13.32828       -0.73695
H         14.63698       10.41235       -1.00295
H          9.92189        9.53729       -0.22111
H         11.04077        8.32823       -2.03043
H          9.41480       10.50725        4.46267
H          8.30840       10.79602        3.09957
H          7.57556        8.88205        4.48515
H          9.72954        8.02563        5.30262
H         11.25468        6.94968        3.32396
H         11.69270        8.82478        1.89743
H          9.00924        6.75094        4.32269
H         13.47110        8.75898       -2.48710
H         13.38162       11.53939        0.76967
H          7.96486        8.37037        2.83680
