90
CSD_code = LIRGOI | q = 0 | S = 0 | Stoichiometry = C26H54B2ClN2ScSi4 | MND = 13
Sc        -0.58462       -2.15432        5.04139
Cl        -0.58443        0.15556        5.04162
Si        -4.16532       -2.55282        7.23964
Si        -2.99514       -5.19391        8.30236
N         -2.83519       -3.66123        7.45568
C         -0.39413       -4.13404        6.57893
C          0.96622       -3.80673        6.63979
C          1.38031       -2.57718        7.17049
C          0.47232       -1.61402        7.63834
C         -0.90243       -1.85610        7.61666
C          2.00986       -4.79968        6.19457
C          1.00202       -0.32992        8.22154
C         -4.65410       -1.60928        8.82943
C         -5.69178       -3.46841        6.54707
C         -3.65547       -1.27020        5.92037
C         -3.44533       -6.61481        7.10068
C         -4.34865       -5.08709        9.64014
C         -1.37587       -5.62215        9.21672
B         -1.44725       -3.21376        7.18727
H         -0.62075       -5.15418        6.27886
H          2.44172       -2.38615        7.27713
H         -1.51663       -1.10023        8.10269
H          1.69856       -5.81491        6.43400
H          2.96203       -4.60710        6.68496
H          2.15603       -4.73272        5.11570
H          0.75859        0.50134        7.55927
H          2.08192       -0.36688        8.34663
H          0.54313       -0.13252        9.18903
H         -3.78121       -1.27566        9.38218
H         -5.24048       -2.23373        9.49452
H         -5.25128       -0.73266        8.59522
H         -5.57450       -3.73736        5.50242
H         -6.56729       -2.83144        6.62196
H         -5.90340       -4.37734        7.09726
H         -2.86716       -1.68963        5.26614
H         -3.26793       -0.35791        6.36563
H         -4.49113       -0.98664        5.28762
H         -4.36973       -6.41861        6.56684
H         -3.57960       -7.54023        7.65235
H         -2.66949       -6.78853        6.36183
H         -4.09347       -4.35913       10.40232
H         -4.45961       -6.04869       10.13050
H         -5.31577       -4.81523        9.23507
H         -0.66311       -6.12681        8.57526
H         -1.57007       -6.27343       10.06325
H         -0.89343       -4.72440        9.58832
C         -0.77467       -4.13396        3.50396
C         -2.13499       -3.80655        3.44299
C         -2.54894       -2.57694        2.91234
C         -3.17873       -4.79948        3.88804
H         -2.86753       -5.81469        3.64840
H         -4.13090       -4.60672        3.39769
H         -3.32489       -4.73273        4.96694
C         -1.64084       -1.61380        2.44465
C         -0.26612       -1.85599        2.46640
C         -2.17041       -0.32957        1.86161
H         -1.92716        0.50151        2.52417
H         -3.25028       -0.36652        1.73623
H         -1.71127       -0.13191        0.89430
B          0.27857       -3.21374        2.89576
N          1.66651       -3.66126        2.62743
Si         2.99672       -2.55289        2.84339
C          3.48550       -1.60976        1.25348
H          2.61258       -1.27936        0.69875
H          4.07494       -2.23324        0.59019
H          4.07970       -0.73104        1.48768
C          4.52314       -3.46840        3.53619
H          4.40582       -3.73726        4.58086
H          5.39862       -2.83138        3.46130
H          4.73483       -4.37737        2.98610
C          2.48687       -1.27017        4.16261
H          1.69863       -1.68959        4.81691
H          2.09928       -0.35791        3.71735
H          3.32255       -0.98658        4.79533
Si         1.82654       -5.19393        1.78073
C          2.27675       -6.61487        2.98236
H          3.20107       -6.41861        3.51632
H          2.41119       -7.54023        2.43063
H          1.50084       -6.78874        3.72110
C          3.18013       -5.08689        0.44305
H          2.92526       -4.35844       -0.31875
H          3.29082       -6.04827       -0.04779
H          4.14732       -4.81555        0.84833
C          0.20734       -5.62227        0.86628
H         -0.50546       -6.12689        1.50773
H          0.40164       -6.27363        0.01983
H         -0.27509       -4.72456        0.49454
H         -0.54814       -5.15410        3.80407
H          0.34822       -1.10015        1.98044
H         -3.61032       -2.38581        2.80557
