96
CSD_code = PUPHIR | q = 0 | S = 0 | Stoichiometry = C30H57FeOPS2Si4 | MND = 3
Fe        10.77606       -2.82885        5.24229
P          8.58750        0.19777        5.88640
S         12.63778       -2.12685        5.81455
S          9.35011       -4.30351        4.77233
Si         8.19243       -4.69518        7.67015
Si         7.67408       -3.44814        2.16161
Si        13.25647       -0.62294        3.02312
Si        13.53586       -1.08358        8.74292
O          9.36664       -1.03943        5.61641
C         13.61129       -0.67363        5.89562
C         13.98667       -0.06603        4.69114
C         14.85019        1.02071        4.76132
C         15.32641        1.48455        5.97457
C         14.93875        0.86277        7.14781
C         14.07981       -0.22931        7.13656
C         14.32845        0.11197        1.62456
C         13.10785       -2.49500        2.67010
C         11.51831        0.16374        2.93567
C         13.97295       -2.94003        8.81070
C         11.66076       -0.80110        8.98800
C         14.42637       -0.24768       10.21013
C          7.68423       -3.81026        4.99740
C          7.15214       -3.90746        6.28805
C          5.83913       -3.49692        6.47683
C          5.08001       -3.01651        5.42224
C          5.61907       -2.97529        4.14804
C          6.92736       -3.37707        3.90571
C          9.89589       -3.87051        7.93312
C          7.23807       -4.53028        9.31778
C          8.40049       -6.56104        7.31433
C          6.39085       -2.76295        0.92375
C          8.02748       -5.26240        1.68290
C          9.24644       -2.37269        2.00933
C          9.52754        1.41914        6.89676
C         10.86502        1.74812        6.25070
C          7.02630       -0.15205        6.79475
C          7.30017       -0.69394        8.18963
C          8.09621        1.08494        4.34789
C          7.06076        0.29344        3.56312
H         15.16011        1.50639        3.84832
H         16.00197        2.32795        6.00496
H         15.31620        1.22600        8.09185
H         14.28811        1.19566        1.61694
H         15.36878       -0.18142        1.71579
H         13.97510       -0.23002        0.65780
H         12.20688       -2.91626        3.12799
H         13.06010       -2.68299        1.60115
H         13.95629       -3.04564        3.06387
H         10.88269       -0.26540        3.70677
H         11.56571        1.23783        3.09248
H         11.04839       -0.01305        1.97418
H         13.32360       -3.52542        8.16877
H         14.99545       -3.11370        8.48831
H         13.87702       -3.32156        9.82334
H         11.45925        0.22488        9.28380
H         11.11951       -1.00270        8.06793
H         11.26000       -1.45083        9.75957
H         14.19606        0.81047       10.27807
H         14.12009       -0.70624       11.14444
H         15.50375       -0.35043       10.13603
H          5.40312       -3.55823        7.46301
H          4.06068       -2.69595        5.59008
H          5.01296       -2.62923        3.32373
H          9.90881       -2.86651        7.50139
H         10.15221       -3.78105        8.98410
H         10.68285       -4.44804        7.44778
H          7.05996       -3.49874        9.60202
H          6.27885       -5.03378        9.26891
H          7.80364       -4.99555       10.11785
H          8.91472       -6.72768        6.37349
H          8.97524       -7.04519        8.09836
H          7.43663       -7.05844        7.25671
H          5.49361       -3.37198        0.90559
H          6.09716       -1.74333        1.15096
H          6.80457       -2.76749       -0.07886
H          7.13136       -5.87127        1.76250
H          8.38450       -5.33283        0.65949
H          8.78099       -5.69901        2.32995
H          9.99365       -2.86714        1.39711
H          9.03465       -1.40929        1.55609
H          9.69503       -2.19428        2.98944
H          9.69459        0.96102        7.87238
H          8.92244        2.31549        7.03625
H         11.48145        2.34379        6.92080
H         11.40406        0.83108        6.02286
H         10.72705        2.30468        5.32684
H          6.49753       -0.90674        6.20793
H          6.41673        0.75096        6.83624
H          6.38040       -1.06836        8.63398
H          8.01034       -1.51537        8.13113
H          7.70541        0.07656        8.84197
H          9.00265        1.20408        3.75245
H          7.71988        2.07524        4.60646
H          6.93248        0.71508        2.56808
H          7.38271       -0.74050        3.46416
H          6.09593        0.30422        4.06494
