75
CSD_code = QEHBIQ | q = 0 | S = 0 | Stoichiometry = C22H44FeN4Si4 | MND = 4
Fe        16.37141       -0.23362        4.48379
N         15.34272       -1.72184        5.15132
N         17.05074        1.47404        3.90047
N         17.13816       -1.02804        3.08086
N         17.80792       -0.81876        5.36697
Si        15.16332       -3.27147        4.46745
C         16.81246       -4.24034        4.45964
H         17.39263       -4.01911        5.34867
H         17.42025       -3.98766        3.59879
H         16.63845       -5.31111        4.43585
C         14.49461       -3.18623        2.67556
H         15.29556       -3.04658        1.95859
H         13.80166       -2.35987        2.56258
H         13.96695       -4.09515        2.40503
C         13.91934       -4.31153        5.47373
H         14.20374       -4.35031        6.51837
H         13.86754       -5.33060        5.10461
H         12.92319       -3.88930        5.41814
Si        14.54867       -0.99157        6.46679
C         14.98425       -1.77404        8.16162
H         14.34474       -2.62636        8.36032
H         14.85325       -1.07432        8.98130
H         16.00981       -2.12641        8.17916
C         12.63728       -0.94494        6.35390
H         12.21579       -1.90915        6.61260
H         12.30461       -0.70501        5.34966
H         12.21127       -0.21118        7.03142
C         15.17520        0.81544        6.41667
H         15.50751        1.16662        7.38816
H         14.40207        1.49725        6.08377
H         16.02018        0.91500        5.72656
Si        15.68955        2.09369        3.08953
C         14.38029        0.71489        3.30213
H         14.84066       -0.20297        3.68395
H         13.88492        0.46471        2.36960
H         13.60545        1.00450        4.00149
C         14.95544        3.70465        3.82013
H         14.94310        3.67851        4.90454
H         13.93924        3.87610        3.47810
H         15.54732        4.56264        3.52376
C         15.98718        2.41429        1.22300
H         16.38385        3.41133        1.06859
H         15.07303        2.33694        0.64206
H         16.70632        1.71140        0.81600
Si        18.54271        2.20241        4.28083
C         18.78889        2.38023        6.17102
H         17.84515        2.58517        6.66409
H         19.46572        3.19472        6.40810
H         19.19951        1.47584        6.60525
C         20.01772        1.21914        3.56242
H         20.31170        0.40578        4.21531
H         20.88407        1.85732        3.42275
H         19.76287        0.79197        2.59886
C         18.64077        3.95897        3.54134
H         17.91400        4.61686        4.00232
H         18.44213        3.94223        2.47651
H         19.62284        4.39572        3.69023
C         16.68618       -0.95581        1.83255
H         15.72981       -0.48635        1.70898
C         17.38368       -1.44195        0.74843
H         16.96948       -1.35324       -0.24327
C         18.62123       -2.05002        0.95163
H         19.18834       -2.44245        0.12245
C         18.34111       -1.60168        3.28419
C         19.10224       -2.12587        2.24205
H         20.06097       -2.57275        2.44970
C         19.78279       -2.18176        5.27744
H         20.46901       -2.76209        4.68222
C         18.69836       -1.55291        4.67023
C         19.95326       -2.06405        6.64104
H         20.78000       -2.54252        7.14177
C         19.01949       -1.31604        7.35599
H         19.10719       -1.20127        8.42466
C         17.97881       -0.71586        6.68147
H         17.24662       -0.13033        7.20245
