122
CSD_code = TAJZUC | q = 0 | S = 0 | Stoichiometry = C43H68N4OPSi4Y | MND = 5
Y          2.16033        4.35131       13.64350
Si         4.20135        2.02747       15.22450
Si         2.78202        1.14852       12.73260
Si        -0.94311        4.16931       11.90564
Si        -0.91568        3.54950       14.80864
P          4.70104        5.42978       11.37918
O          3.31693        4.91887       11.64891
N          2.06474        6.47277       14.92221
N          4.03667        5.90742       14.15026
N          3.18681        2.37836       13.87848
N         -0.06197        4.04065       13.38631
C          3.31785        6.84496       14.76485
C          3.91260        8.22286       15.11966
C          2.86092        9.32638       15.28948
H          3.37633       10.27905       15.40884
H          2.24492        9.16744       16.16799
H          2.21661        9.40577       14.42007
C          4.70631        8.13887       16.43464
H          4.83255        9.13888       16.84595
H          5.69387        7.72046       16.26992
H          4.18115        7.53455       17.16948
C          4.84754        8.67886       13.98975
H          5.27195        9.64973       14.23918
H          4.29614        8.77518       13.05643
H          5.66825        7.98450       13.83380
C          0.98180        7.21713       15.40740
C          0.11668        7.82352       14.48053
C         -0.99893        8.50648       14.93220
H         -1.65844        8.97717       14.21706
C         -1.27996        8.58786       16.28576
H         -2.14960        9.12747       16.62885
C         -0.45163        7.95509       17.19239
H         -0.67845        7.99323       18.24837
C          0.67479        7.25903       16.77364
C          0.41571        7.69782       13.01838
H         -0.37860        8.14200       12.42277
H          0.50511        6.63469       12.76511
H          1.35875        8.18475       12.76273
C          1.53257        6.56896       17.79452
H          0.91803        5.92945       18.42659
H          2.02368        7.29919       18.43951
H          2.29228        5.95700       17.31340
C          5.37425        5.67566       14.04494
C          6.26362        5.54977       15.12546
H          5.88874        5.64876       16.13098
C          7.59257        5.25571       14.91184
H          8.25972        5.17293       15.75773
C          8.08512        5.05220       13.62877
H          9.13005        4.83345       13.47301
C          7.21336        5.09306       12.55737
H          7.56979        4.88901       11.55677
C          5.87169        5.38379       12.75879
C          4.63392        7.14113       10.77599
C          3.39396        7.71616       10.53352
H          2.50348        7.12329       10.68800
C          3.31559        9.02934       10.10291
H          2.35199        9.48037        9.91688
C          4.47464        9.76436        9.91208
H          4.41389       10.78941        9.57791
C          5.71377        9.18896       10.15079
H          6.61432        9.76576       10.00101
C          5.79614        7.87896       10.58557
H          6.75539        7.42288       10.78561
C          5.45601        4.39852       10.08801
C          5.73773        4.84350        8.80626
H          5.55571        5.87575        8.54149
C          6.25302        3.95819        7.87341
H          6.47595        4.30085        6.87368
C          6.47777        2.63609        8.21961
H          6.87695        1.94984        7.48755
C          6.18898        2.19015        9.50080
H          6.35877        1.15762        9.76650
C          5.67887        3.07037       10.43652
H          5.44335        2.74640       11.44245
C          6.05938        1.96809       14.74088
H          6.30173        1.02218       14.26927
H          6.70576        2.07638       15.60615
H          6.31197        2.75973       14.04285
C          3.97575        3.37322       16.57545
H          3.65431        4.31853       16.13707
H          4.90636        3.54859       17.10563
H          3.23648        3.07359       17.31158
C          3.83298        0.37334       16.12003
H          3.98139       -0.46861       15.45425
H          2.80896        0.33075       16.47703
H          4.48549        0.23424       16.97624
C          4.19306       -0.08925       12.34176
H          3.94454       -0.70397       11.48258
H          4.36711       -0.75361       13.18006
H          5.12851        0.41520       12.12798
C          1.27874        0.11127       13.31471
H          0.98992       -0.62947       12.57544
H          0.42523        0.75810       13.49329
H          1.49578       -0.41452       14.23830
C          2.29022        1.94483       11.06393
H          1.82253        1.21372       10.41110
H          3.14138        2.35689       10.53063
H          1.57289        2.74594       11.22772
C          0.12217        5.04657       10.56567
H         -0.20812        6.06744       10.39852
H          0.04291        4.52668        9.61610
H          1.17763        5.07155       10.83024
C         -1.49292        2.48671       11.16558
H         -0.70541        1.74325       11.22627
H         -1.77421        2.58754       10.12143
H         -2.35266        2.09439       11.69665
C         -2.54078        5.21515       12.06986
H         -2.36512        6.12964       12.62612
H         -3.30530        4.65626       12.59757
H         -2.94448        5.48458       11.09881
C         -2.09303        2.04921       14.63381
H         -2.44114        1.71417       15.60586
H         -1.62452        1.20373       14.14374
H         -2.96679        2.32207       14.05250
C         -2.00838        4.91167       15.60193
H         -2.29198        4.64394       16.61523
H         -2.92197        5.05828       15.03751
H         -1.49416        5.86411       15.64507
C          0.43271        3.09567       16.09120
H         -0.00314        2.70330       17.00544
H          1.00429        3.98411       16.36129
H          1.11125        2.33929       15.69806
