85
CSD_code = TOPYIJ | q = 0 | S = 0 | Stoichiometry = C25H51N4Si4Y | MND = 4
C          0.15870       11.80575        2.43477
C         -0.79594       11.18640        1.62744
H         -1.64238       11.65895        1.16629
C         -0.43040        9.83344        1.55341
C         -0.96910        8.70370        0.92136
H         -1.86672        8.79060        0.32634
C         -0.33541        7.49920        1.07967
H         -0.73246        6.61450        0.60332
C          0.82867        7.38133        1.86060
H          1.28685        6.40809        1.96396
C          1.38573        8.46575        2.48983
H          2.26927        8.37904        3.10839
C          0.76048        9.70872        2.33819
C          0.21928       13.16923        2.83315
H         -0.54766       13.82363        2.41704
C          1.22008       15.00795        4.00581
C         -0.09178       15.79036        3.86588
H         -0.35934       15.94879        2.82398
H          0.02704       16.76640        4.32896
H         -0.90503       15.26939        4.36743
C          2.30178       15.62345        3.10807
H          3.23387       15.07226        3.22767
H          2.46371       16.66532        3.37329
H          1.99622       15.57397        2.06443
C          1.68447       15.06150        5.46528
H          0.89527       14.70807        6.12659
H          1.93759       16.08213        5.74312
H          2.56985       14.43276        5.58499
C          3.84460       11.99438        1.12243
H          3.69426       10.96569        1.46315
H          4.12362       11.94179        0.07395
H          2.89283       12.52528        1.16972
C          5.41103       14.63972        1.37320
H          4.46346       15.08478        1.08988
H          6.02599       14.58994        0.48040
H          5.89743       15.31580        2.06641
C          6.86302       12.00517        1.78266
H          7.69884       12.61089        2.11521
H          6.98963       11.83486        0.71784
H          6.93615       11.04418        2.27944
C          5.99999       15.27791        5.05928
H          6.72955       15.50407        4.28969
H          6.41220       15.61328        6.00549
H          5.11414       15.87069        4.85662
C          7.32141       12.52861        5.28300
H          7.22241       11.44808        5.29183
H          7.81511       12.82219        6.20448
H          7.98099       12.79041        4.46356
C          4.65205       13.05537        6.72768
H          4.17238       13.94994        7.11457
H          5.32703       12.70595        7.50224
H          3.89141       12.27860        6.59098
C          5.06221        9.32788        4.04266
H          4.46281        9.07028        3.17008
H          5.96860        8.73135        3.99304
H          5.35373       10.37529        3.96479
C          5.37515        9.26510        7.11689
H          5.82433       10.25195        7.09004
H          6.17659        8.53491        7.06403
H          4.88956        9.14991        8.07939
C          3.57334        7.19265        5.74807
H          3.13487        6.96282        6.71266
H          4.41435        6.52261        5.60156
H          2.83106        6.96266        4.99150
C          0.60770       11.71631        6.77651
H          1.26736       12.45613        7.22578
H         -0.30083       11.69093        7.37032
H          0.32845       12.04880        5.77334
C          1.83231        9.47700        8.51761
H          2.27068        8.48635        8.54761
H          0.93681        9.46011        9.12974
H          2.53608       10.16187        8.97811
C          0.14252        8.75986        6.01871
H         -0.10338        8.99889        4.98792
H         -0.77867        8.77859        6.59268
H          0.51873        7.74309        6.03592
Y          2.74133       11.74559        4.16282
N          1.11852       10.90566        2.86478
N          1.12769       13.59378        3.64480
N          4.65375       12.86037        3.77891
N          2.83258       10.17343        5.72013
Si         5.20403       12.89374        2.14184
Si         5.62515       13.39738        5.10390
Si         4.12226        9.02527        5.68755
Si         1.44000        9.98345        6.71739
