82
CSD_code = VIRHEK | q = 0 | S = 0 | Stoichiometry = C26H49NORuSi4 | MND = 8
Ru         0.95600        3.90339        9.03664
Si         1.45388        5.63838        7.49506
H          2.63402        6.44245        8.00424
H          2.14953        5.03922        6.30696
Si        -0.80934        6.13667        5.35822
Si         1.62766        8.16199        5.72299
Si        -0.65218        8.00029        7.92236
O         -1.81829        4.42626        9.95255
N          1.87634        4.92365       10.51725
C          0.36220        7.00427        6.61508
C          0.11027        5.39080        3.85493
H          0.93847        4.76414        4.16341
H          0.50419        6.16671        3.20829
H         -0.55831        4.77938        3.25525
C         -2.13203        7.28795        4.59655
H         -2.90219        6.70494        4.10030
H         -1.70469        7.95560        3.85835
H         -2.61827        7.89910        5.34691
C         -1.74584        4.67824        6.16800
H         -1.99581        3.91434        5.43660
H         -2.67521        5.00167        6.62144
H         -1.14545        4.21672        6.95193
C          3.03791        7.27472        4.78053
H          2.67025        6.50804        4.11088
H          3.72836        6.80454        5.47100
H          3.60235        7.98570        4.18330
C          2.57513        9.29570        6.94018
H          3.15670        8.70605        7.63993
H          1.91860        9.93327        7.51881
H          3.26697        9.93877        6.40381
C          0.80712        9.28495        4.41247
H          1.47034       10.09980        4.13984
H         -0.11672        9.72056        4.76848
H          0.58461        8.73224        3.50672
C         -1.04650        9.80827        7.42589
H         -1.71456        9.84052        6.57194
H         -0.16538       10.38326        7.17147
H         -1.54712       10.32038        8.24283
C          0.29483        8.03638        9.58075
H         -0.19183        8.67684       10.30971
H          1.31286        8.38583        9.46067
H          0.33902        7.03156        9.99339
C         -2.38235        7.30956        8.34332
H         -2.82716        7.88783        9.14865
H         -2.34537        6.28004        8.66953
H         -3.05877        7.36181        7.49798
C         -0.72585        4.38399        9.56711
C          1.31286        5.21565       11.70445
H          0.23530        5.11800       11.76675
C          2.03281        5.62034       12.80890
H          1.51507        5.83715       13.72982
C          3.41317        5.74481       12.71957
H          4.00277        6.06012       13.56529
C          4.00151        5.46081       11.49583
H          5.06793        5.55218       11.35935
C          3.21116        5.06881       10.43418
H          3.65630        4.88801        9.46421
C          1.34626        2.29557        7.48291
C          0.31401        1.85367        8.36860
C          0.88207        1.72128        9.68059
C          2.25592        2.07607        9.59613
C          2.54587        2.46926        8.25625
C          1.28586        2.22874        5.98607
H          1.41435        1.19102        5.66731
H          2.07739        2.82257        5.53672
H          0.33224        2.58889        5.60714
C         -1.01904        1.29739        7.95515
H         -1.32970        1.69726        6.99294
H         -1.79150        1.52786        8.68741
H         -0.94815        0.21034        7.86892
C          0.21860        1.04606       10.84444
H          0.34552       -0.03700       10.76745
H         -0.84859        1.25930       10.86497
H          0.65052        1.36914       11.79040
C          3.25189        1.86346       10.69885
H          2.84746        2.15406       11.66922
H          4.16924        2.42555       10.53218
H          3.51018        0.80301       10.75056
C          3.91528        2.62842        7.65576
H          4.66817        2.81137        8.42085
H          3.94208        3.45402        6.94498
H          4.19428        1.71509        7.12457
