141
CSD_code = WEQQAK | q = 0 | S = 0 | Stoichiometry = C72H60O4Si4Ti | MND = 4
Ti         9.46500        5.46456        2.22322
Si         6.79569        4.08662        1.16389
Si         9.46504        5.46458        5.55643
O          8.31291        4.27856        1.65596
O          9.46499        5.46448        3.95029
C          6.32599        2.28635        1.54141
C          5.99488        4.17110       -2.96270
H          5.44024        3.58978       -3.68586
C          7.40910        6.03672       -2.44078
H          7.95983        6.91236       -2.75188
C          3.57303        6.50754        2.32660
H          2.55411        6.67795        2.00866
C          5.67014        5.33500        2.06218
C          8.36843        4.00287        6.09453
C          6.71760        4.52282       -0.68696
C          6.00796        3.79019       -1.63156
H          5.46619        2.90905       -1.31736
C          4.35503        5.57329        1.67135
H          3.94454        5.02433        0.83549
C          6.69498        5.29527       -3.36881
H          6.68654        5.59191       -4.40784
C          7.41690        5.65119       -1.11245
H          7.97738        6.22880       -0.38296
C          7.65808        3.30340        5.11925
H          7.75315        3.59870        4.07950
C          7.33420        1.33490        1.67391
H          8.36339        1.64125        1.54528
C          6.73247        1.83879        6.77460
H          6.10152        1.00277        7.03978
C          7.03917        0.01866        1.97935
H          7.83876       -0.70058        2.08445
C          6.18448        6.07761        3.12219
H          7.21800        5.92042        3.42664
C          8.24301        3.58823        7.41661
H          8.79279        4.10550        8.18888
C          5.00885        1.87647        1.71757
H          4.21264        2.60059        1.62622
C          4.70600        0.56035        2.01937
H          3.67662        0.26008        2.15578
C          4.09678        7.22595        3.38908
H          3.48659        7.95347        3.90484
C          5.40685        7.01274        3.78502
H          5.82565        7.57742        4.60567
C          7.43483        2.51805        7.75669
H          7.35264        2.20975        8.78929
C          6.84658        2.23288        5.45165
H          6.30941        1.70563        4.67595
C          5.72177       -0.37214        2.15282
H          5.48600       -1.39889        2.39368
O         11.06818        5.05986        1.65598
Si        11.99301        3.84190        1.16386
C         13.78695        4.33522        1.54144
C         14.10688        5.68407        1.67390
H         13.32700        6.42222        1.54526
C         15.39431        6.08667        1.97932
H         15.61740        7.13874        2.08448
C         16.39141        5.14113        2.15286
C         16.09171        3.79522        2.01938
C         14.80048        3.39946        1.71759
H         14.57147        2.34786        1.62621
H         16.86642        3.05386        2.15581
H         17.39850        5.45030        2.39372
C         11.47470        2.24297        2.06220
C         11.92592        0.98492        1.67138
C         11.50784       -0.15944        2.32665
H         11.86958       -1.12707        2.00858
C         10.62382       -0.06506        3.38913
H         10.29887       -0.95726        3.90490
C         10.15338        1.17609        3.78503
C         10.57440        2.31710        3.12219
H         10.19387        3.29077        3.42673
H          9.45510        1.25646        4.60581
H         12.60638        0.90387        0.83535
C         11.65429        3.55621       -0.68699
C         12.64359        3.30803       -1.63160
C         12.32022        3.10615       -2.96272
H         13.10098        2.91643       -3.68587
C         10.99662        3.15038       -3.36882
C          9.99745        3.39801       -2.44077
H          8.96377        3.43719       -2.75186
C         10.32745        3.59759       -1.11247
H          9.54701        3.79421       -0.38298
H         10.74393        2.99469       -4.40783
H         13.67754        3.27929       -1.31737
O          9.01390        7.05536        1.65614
Si         9.60629        8.46527        1.16400
C          8.28211        9.77229        1.54139
C          6.95402        9.37493        1.67393
H          6.70470        8.33046        1.54523
C          5.96166       10.28856        1.97941
H          4.93899        9.95574        2.08449
C          6.28196       11.62487        2.15286
C          7.59741       12.03826        2.01948
C          8.58575       11.11790        1.71760
H          9.61099       11.44535        1.62635
H          7.85210       13.07985        2.15596
H          5.51067       12.34243        2.39379
C         11.25024        8.81589        2.06214
C         12.11416        9.83569        1.67132
C         13.31429       10.04575        2.32652
H         13.97139       10.84284        2.00849
C         13.67462        9.23292        3.38896
H         14.60972        9.39763        3.90475
C         12.83495        8.20493        3.78485
C         11.63628        7.99905        3.12203
H         10.98317        7.18290        3.42677
H         13.11439        7.56015        4.60573
H         11.84409       10.46551        0.83534
C         10.02307        8.31483       -0.68690
C          9.74344        9.29569       -1.63155
C         10.07977        9.11649       -2.96273
H          9.85392        9.88759       -3.68587
C         10.70339        7.94813       -3.36878
C         10.98838        6.95898       -2.44072
H         11.47110        6.04409       -2.75185
C         10.65069        7.14504       -1.11236
H         10.87035        6.37071       -0.38292
H         10.96448        7.80710       -4.40783
H          9.25146       10.20556       -1.31735
C         11.27923        5.24584        6.09456
C         12.24021        4.98041        5.11931
H         11.93695        4.91501        4.07956
C         13.57305        4.81290        5.45176
C         13.97135        4.91114        6.77472
H         15.01083        4.78272        7.03994
C         13.03188        5.17974        7.75679
C         11.70099        5.34453        7.41665
H         10.97809        5.56199        8.18891
H         13.33993        5.26269        8.78941
H         14.29826        4.61130        4.67610
C          8.74733        7.14510        6.09455
C          8.49673        8.11006        5.11930
H          8.70515        7.88020        4.07957
C          7.97537        9.34808        5.45175
C          7.69118        9.64394        6.77471
H          7.28268       10.60837        7.03992
C          7.92831        8.69604        7.75678
C          8.45102        7.46106        7.41664
H          8.62411        6.72628        8.18891
H          7.70234        8.92133        8.78938
H          7.78747       10.07699        4.67611
