90
CSD_code = XEDNUQ | q = 0 | S = 0 | Stoichiometry = C29H52N2O2Si4W | MND = 8
W          9.12643        7.30066       10.21605
O          9.53707       10.30177        9.49660
O         12.12333        7.36147       11.04333
N         11.51707        5.44661        8.62919
N         14.22991        3.09747       10.78736
Si        10.15113        6.63886        8.15173
Si         8.51132        6.72329        5.52933
Si        11.01894        8.63463        5.92322
Si        11.47206        5.49042        5.36594
C          9.40258        9.16501        9.70815
C         10.98753        7.41764       10.76930
C         10.33610        6.82068        6.22338
C          7.24601        7.70833        6.56066
H          6.27344        7.22580        6.52053
H          7.11156        8.71236        6.17672
H          7.54086        7.79470        7.60283
C          8.31513        7.35194        3.73447
H          8.88305        6.77230        3.01821
H          8.62185        8.38702        3.63893
H          7.27093        7.29627        3.44018
C          7.91161        4.90780        5.54346
H          6.87261        4.85039        5.23373
H          7.97470        4.47787        6.53710
H          8.48370        4.27906        4.87149
C          9.69030        9.97769        6.13239
H          9.18529        9.88229        7.08498
H          8.94223        9.95847        5.34887
H         10.15414       10.95916        6.11242
C         11.73849        8.86986        4.16458
H         10.99065        8.70291        3.39797
H         12.57463        8.21235        3.95814
H         12.09245        9.89030        4.05047
C         12.39055        9.08183        7.17048
H         12.71810       10.10436        7.00985
H         13.26920        8.45179        7.08492
H         12.01712        9.02179        8.18912
C         11.16998        3.69461        5.97090
H         11.21867        3.00133        5.13666
H         10.20160        3.56740        6.43722
H         11.92244        3.38612        6.68916
C         11.22345        5.38665        3.47170
H         11.99541        4.76213        3.03021
H         11.27727        6.35429        2.98996
H         10.26768        4.94085        3.21894
C         13.34460        5.78896        5.62309
H         13.65066        5.57333        6.64100
H         13.63739        6.80761        5.39945
H         13.91737        5.13626        4.97026
C         11.19048        4.21926        9.08187
H         10.18362        3.90274        8.86441
C         12.03824        3.41784        9.78383
H         11.68479        2.45564       10.11232
C         13.34897        3.85949       10.08812
C         13.67688        5.14298        9.61185
H         14.64380        5.57644        9.79665
C         12.75998        5.88420        8.91823
H         12.99614        6.87409        8.57189
C         13.85892        1.78129       11.24489
H         13.08192        1.82134       12.01617
H         14.73158        1.28503       11.66244
H         13.49502        1.17601       10.41202
C         15.46825        3.67459       11.25399
H         16.14332        3.88071       10.41827
H         15.96247        2.97913       11.92737
H         15.28679        4.60656       11.79572
C          7.24310        5.84333       10.31519
C          6.79194        7.16001       10.59476
C          7.44339        7.60302       11.79072
C          8.27236        6.54793       12.25280
C          8.17014        5.46313       11.33579
C          6.66082        4.92666        9.27599
H          7.35408        4.12680        9.01521
H          6.41186        5.46547        8.36350
H          5.74651        4.46369        9.65783
C          5.64369        7.87719        9.94253
H          4.76367        7.83854       10.59099
H          5.38066        7.42035        8.99096
H          5.87918        8.92701        9.76387
C          7.08577        8.85038       12.54423
H          6.19565        8.68128       13.15748
H          6.87370        9.67240       11.86122
H          7.89633        9.15910       13.20252
C          9.00246        6.49676       13.56198
H          9.27430        7.49529       13.90048
H          9.91528        5.90643       13.48037
H          8.37086        6.03902       14.32899
C          8.72333        4.08810       11.58727
H          9.79805        4.11785       11.78027
H          8.55075        3.42864       10.73793
H          8.23938        3.64114       12.46025
