113
CSD_code = YAZMES | q = 0 | S = 0 | Stoichiometry = C39H64N5Si4Ta | MND = 7
Ta        -0.72584        5.79547       15.97146
Si        -0.61701        8.71591       18.27752
Si        -1.98260        3.47192       18.78077
Si        -4.41444        5.92996       15.36708
Si        -0.50887        2.28882       14.13088
N         -1.08588        7.11551       17.76664
N         -1.58701        4.95722       17.97364
N         -2.86167        5.20081       15.19647
N         -1.22186        3.75972       14.71421
N         -0.10494        6.32585       14.15515
C         -1.56365        6.14896       18.51915
C         -1.93266       10.00265       17.75280
C          1.06689        9.04035       17.43782
C         -0.32155        8.97567       20.15227
C         -0.35952        2.72383       19.47833
C         -3.26928        3.55513       20.19927
C         -2.72111        2.28293       17.49132
C         -2.05507        6.41416       19.88725
C         -3.28093        7.03953       20.06877
C         -1.30411        6.05538       20.99937
C         -3.75016        7.29326       21.34520
C         -1.77314        6.32259       22.27060
C         -3.00366        6.94238       22.46199
C         -3.50335        7.21252       23.84858
C         -2.47351        4.11898       14.56273
C         -5.56064        5.85610       13.83671
C         -3.98348        7.75022       15.74379
C         -5.33557        5.19038       16.87691
C          0.19055        2.41717       12.35492
C         -1.66231        0.75631       14.12748
C          0.90158        1.91289       15.36471
C         -3.39289        3.38159       13.66760
C         -4.46866        2.65425       14.15922
C         -3.18037        3.43572       12.29613
C         -5.30804        1.98214       13.29194
C         -4.03438        2.77311       11.43326
C         -5.10586        2.03429       11.91683
C         -6.03213        1.30568       10.99073
C         -0.47060        7.50389       14.71045
C         -0.42735        8.73606       14.21066
C          0.19441        6.15369       12.79953
C         -0.75639        6.42479       11.80215
C          1.47291        5.70036       12.43467
C         -0.41251        6.23274       10.47097
C          1.78465        5.53157       11.09534
C          0.84763        5.79418       10.11108
C         -2.13148        6.90345       12.15739
C          2.48050        5.42006       13.50614
C          1.35019        5.37499       16.89379
H         -0.74665        9.58735       14.78692
H         -0.03377        8.94494       13.22321
H         -3.86803        7.31770       19.20558
H         -0.34749        5.57475       20.85947
H         -1.17972        6.04732       23.13113
H         -4.63542        2.60620       15.22360
H         -6.13613        1.40781       13.68346
H         -3.86243        2.82800       10.36752
H         -2.34598        4.00228       11.91214
H         -4.70939        7.77416       21.47518
H         -1.14899        6.43533        9.70580
H          1.09913        5.65671        9.07010
H          2.77236        5.18977       10.82046
H         -7.04786        1.68617       11.09383
H         -5.72125        1.42397        9.95597
H         -6.05029        0.24312       11.22988
H         -3.71242        6.27463       24.36278
H         -2.75224        7.74777       24.42727
H         -4.41513        7.80374       23.82672
H         -2.83351        3.88971       21.13416
H         -4.09374        4.22374       19.97054
H         -3.68661        2.56665       20.36712
H         -3.79903        2.39024       17.42395
H         -2.30086        2.46680       16.51134
H         -2.51340        1.25182       17.75842
H         -1.24296        8.97189       20.72413
H          0.33112        8.21870       20.57385
H          0.15442        9.93932       20.30556
H         -1.58329       11.00445       17.98104
H         -2.13623        9.95775       16.68894
H         -2.87315        9.85926       18.27708
H          1.86821        8.50353       17.93683
H          1.05066        8.72595       16.39898
H          1.31521       10.09606       17.46762
H         -2.46870        6.44230       13.08384
H         -2.12883        7.98298       12.31096
H         -2.83365        6.67173       11.35835
H         -0.47134        1.65885       19.65615
H          0.46681        2.85869       18.78636
H         -0.07545        3.17995       20.42219
H          2.09266        4.66013       14.18350
H          3.41782        5.07747       13.07438
H          2.66440        6.32208       14.08905
H         -3.30091        7.79936       16.58772
H         -3.48987        8.22761       14.90203
H         -4.86521        8.33496       15.98649
H         -6.09162        5.87822       17.24313
H         -5.83780        4.25839       16.63581
H         -4.64046        4.99319       17.68818
H         -6.38180        6.55609       13.95204
H         -5.03303        6.11405       12.92449
H         -5.98609        4.86786       13.69803
H          1.00518        1.71219       12.22031
H         -0.56700        2.18293       11.61280
H          0.57185        3.40823       12.13491
H         -2.21800        0.64862       15.05283
H         -2.38215        0.79443       13.31616
H         -1.07093       -0.14487       13.99536
H          1.21646        0.87744       15.28112
H          1.77409        2.52933       15.17472
H          0.58485        2.08272       16.38943
H          1.28684        5.45483       17.98145
H          1.72512        4.37459       16.68036
H          2.12787        6.07441       16.58118
