106
CSD_code = YONZAD | q = 0 | S = 0 | Stoichiometry = C31H65N4OSi4Y | MND = 4
C          8.33075        3.39517       17.91978
C          9.63809        5.31886       17.61127
H         10.57473        5.39320       17.05608
H          9.64169        6.08183       18.39760
C          8.40435        5.39919       16.71430
H          7.78990        6.28045       16.91213
H          8.66154        5.38409       15.64972
C         10.39733        3.58355       19.23740
C         10.02190        3.75149       20.57507
C         10.91373        3.35743       21.56414
H         10.64196        3.46739       22.60215
C         12.14939        2.83392       21.23798
H         12.83090        2.53189       22.01910
C         12.51930        2.70650       19.91318
H         13.49343        2.31157       19.67099
C         11.65313        3.07372       18.89191
C          7.87060        3.42654       21.80978
H          7.75054        2.47151       21.29023
H          6.88497        3.84968       21.98733
H          8.34515        3.24488       22.77100
C          8.70608        4.38469       20.96178
H          8.12540        4.60277       20.06045
C          8.94966        5.70440       21.70219
H          9.46921        5.53257       22.64131
H          8.00041        6.18802       21.92073
H          9.55371        6.38262       21.10138
C         12.53871        1.51847       17.12183
H         13.42595        1.24243       17.68526
H         12.77145        1.44238       16.06201
H         11.74798        0.81041       17.35225
C         12.09078        2.94330       17.45142
H         11.24281        3.17581       16.80196
C         13.21897        3.93783       17.15703
H         12.92104        4.95371       17.41092
H         13.48141        3.90637       16.10187
H         14.10524        3.69342       17.73724
C          6.35432        3.92696       16.56643
H          6.30599        2.91596       16.13574
H          6.12681        4.66652       15.79584
C          3.90984        3.76578       17.08712
H          3.88580        2.79370       16.60282
H          3.68076        4.54102       16.35943
H          3.15641        3.78105       17.87031
C          5.29618        3.99298       17.72316
C          5.32610        5.39899       18.36398
H          4.55114        5.45185       19.12342
H          5.14957        6.17527       17.62256
H          6.28281        5.56691       18.85344
C          9.91962       -0.06482       19.36640
H          9.55903        0.43142       18.46205
H         10.68718       -0.77408       19.07272
H         10.38917        0.68096       20.00092
C          7.90629       -2.41911       19.18309
H          7.16460       -3.02106       19.69832
H          8.72823       -3.07444       18.91130
H          7.45594       -2.04933       18.26550
C          9.22186       -1.67330       21.87400
H          9.54643       -0.88890       22.54815
H         10.08002       -2.30159       21.65825
H          8.49371       -2.28043       22.39906
C          4.70050        1.41104       21.44879
H          4.57862        2.00079       22.35197
H          3.73400        0.97436       21.21830
H          4.95937        2.09532       20.64015
C          5.17744       -1.66156       21.72589
H          4.71221       -1.92041       20.78023
H          4.40802       -1.69906       22.49085
H          5.90297       -2.43549       21.95381
C          6.71821        0.26326       23.47095
H          7.28271       -0.61064       23.77386
H          5.90665        0.38874       24.18132
H          7.37185        1.12307       23.56267
C          7.19514       -0.03646       13.65777
H          6.56696       -0.91310       13.55099
H          8.00231       -0.12041       12.93695
H          6.59711        0.82609       13.38464
C          9.11612        1.55536       15.39426
H          8.67259        2.45899       14.98835
H          9.96484        1.30005       14.76810
H          9.49442        1.77808       16.38704
C          8.91315       -1.48228       15.73208
H          9.44128       -1.45112       16.67933
H          9.65154       -1.61127       14.94615
H          8.28502       -2.36651       15.73826
C          4.02603        0.38535       15.09066
H          4.34723        1.38293       14.80823
H          2.97971        0.44199       15.37527
H          4.08779       -0.23448       14.20300
C          5.11732       -2.23910       16.19292
H          5.69030       -2.47653       15.30339
H          4.10986       -2.61455       16.04417
H          5.55369       -2.78750       17.02088
C          4.21904       -0.05172       18.17041
H          4.77312       -0.52490       18.98103
H          3.21863       -0.47676       18.16862
H          4.11945        1.01267       18.38845
N          7.68256        4.17637       17.06435
N          9.49678        3.98757       18.21472
N          7.23599        0.23222       20.45865
N          6.66418        0.39289       16.64122
O          5.56571        3.03635       18.67828
Si         8.47571       -0.94853       20.27195
Si         6.03462        0.05569       21.68894
Si         7.86687        0.09959       15.44532
Si         5.11226       -0.34890       16.50272
Y          6.90793        1.48887       18.61243
