87
CSD_code = YOTGET | q = -1 | S = 0 | Stoichiometry = C20H52B8ClOSi4Zr(1-) | MND = 12
Zr         5.86996        3.21713       14.77592
Cl         6.49307        5.01347       13.17306
Si         2.87066        6.04972       14.67551
Si         3.21964        4.05040       11.63149
Si         7.76746        0.59020       12.61968
Si         9.66255        3.68545       13.45912
C          3.59621        4.32639       14.60019
C          3.77762        3.51711       13.34230
B          4.09471        2.01811       13.68303
B          3.96586        1.88587       15.31578
B          3.74642        3.40698       15.87468
B          2.71352        2.86809       14.50450
C          7.61621        1.57578       14.18968
C          8.31407        2.87729       14.47529
B          8.01742        3.34096       15.94442
B          7.08821        2.18863       16.62585
B          6.83103        1.07555       15.46091
B          8.52223        1.64103       15.62449
C          2.51591        6.58548       16.49871
C          3.95130        7.48800       13.98024
C          1.12361        6.32160       13.90114
C          1.32799        3.78267       11.34365
C          3.95444        2.98445       10.20697
C          3.62510        5.83240       11.04771
C          6.78274       -1.05595       12.74699
C          6.89899        1.62487       11.25444
C          9.49915        0.02282       11.98829
C         11.38960        2.86332       13.71534
C          9.44764        3.85387       11.55995
C          9.93999        5.50165       14.04236
O          5.97275        5.34387       16.31587
C          6.51024        6.64440       16.10137
C          7.58973        6.83703       17.17367
C          7.13783        5.90008       18.30547
C          5.88949        5.20929       17.73269
H          4.06845        1.22039       12.79540
H          3.84153        0.88093       15.94243
H          3.40790        3.84470       16.93136
H          1.54708        2.82824       14.35518
H          8.70126        4.21305       16.38495
H          6.88696        2.04117       17.80142
H          6.42539       -0.03807       15.46567
H          9.54101        1.07273       15.78021
H          2.01006        7.54772       16.52135
H          3.42339        6.68605       17.08316
H          1.87822        5.86915       17.00476
H          4.89393        7.12577       13.58769
H          4.17077        8.22940       14.74384
H          3.44171        8.00661       13.17471
H          1.14773        6.29551       12.81814
H          0.71337        7.28497       14.19530
H          0.42757        5.55729       14.23342
H          0.73013        4.12897       12.17741
H          1.11631        2.72520       11.21674
H          0.98183        4.29740       10.45075
H          3.89956        1.92309       10.42132
H          4.98989        3.23617       10.00899
H          3.39669        3.15813        9.28963
H          2.94272        6.57022       11.45119
H          3.56769        5.89084        9.96368
H          4.63045        6.11366       11.33836
H          6.75194       -1.57179       11.79067
H          5.76028       -0.86556       13.05589
H          7.22449       -1.73270       13.47079
H          6.55967        2.58210       11.65757
H          6.02696        1.10101       10.87845
H          7.53997        1.83037       10.40297
H         10.13342        0.86172       11.72547
H          9.40776       -0.60865       11.10784
H         10.01702       -0.55197       12.75055
H         11.71316        2.96657       14.74603
H         12.14870        3.31562       13.08293
H         11.36313        1.80286       13.49271
H          9.52063        2.90432       11.04366
H         10.21973        4.50479       11.15748
H          8.48897        4.29733       11.31829
H         10.27635        5.55053       15.07282
H          9.02128        6.07150       13.95907
H         10.69036        5.99657       13.43143
H          6.89356        6.68031       15.08194
H          5.71508        7.39122       16.22402
H          7.65526        7.87682       17.48984
H          8.55789        6.52793       16.78602
H          7.90508        5.15947       18.51932
H          6.90459        6.44143       19.22124
H          5.84821        4.13938       17.95532
H          4.97806        5.70547       18.09275
