79
CSD_code = YUCJOV | q = 0 | S = 0 | Stoichiometry = C28H42BrN3Si4Ti | MND = 4
Ti        -0.74719        3.27430        4.91628
Br         1.50496        3.72264        4.12468
Si        -2.43777        3.82271        7.56940
Si        -3.73076        4.01045        4.03546
Si        -2.58308        0.71411        5.45159
Si        -3.82663        2.67209        6.00668
N         -1.22763        4.28307        6.41197
N         -2.08092        3.62412        3.65751
N         -1.03631        1.50213        5.42656
C         -0.53122        5.47706        6.42726
C         -0.39897        6.22237        5.24239
C          0.30988        7.40798        5.22794
C          0.90294        7.90638        6.38145
C          0.76396        7.17743        7.55720
C          0.06387        5.98909        7.58614
C          1.68641        9.18395        6.36382
C         -1.56283        3.49884        2.38208
C         -1.80061        4.43802        1.37389
C         -1.24397        4.28800        0.11836
C         -0.43182        3.20428       -0.18508
C         -0.19767        2.25977        0.81024
C         -0.75153        2.39255        2.06679
C          0.19112        3.04482       -1.53885
C          0.15891        0.92310        5.81056
C          0.55788       -0.34591        5.37528
C          1.76946       -0.87941        5.76414
C          2.63350       -0.17865        6.59793
C          2.24110        1.07870        7.04086
C          1.02835        1.62333        6.66539
C          3.95889       -0.76092        6.98590
C         -5.60786        2.31951        6.63911
C         -3.15330        5.37171        8.44733
C         -1.71214        2.67482        8.93623
C         -3.97022        5.89195        4.37616
C         -4.88131        3.54728        2.57206
C         -2.58034       -0.73539        6.70805
C         -3.04262       -0.02298        3.73121
H          1.21915        7.54589        8.46597
H          1.53716        9.71661        5.42811
H          2.75042        8.97262        6.47107
H          1.38968        9.83049        7.18825
H         -1.44026        5.03539       -0.63773
H          0.43111        1.40752        0.59374
H         -0.13001        3.83680       -2.21059
H         -0.08172        2.08466       -1.97537
H          1.27720        3.07737       -1.45854
H          2.05565       -1.85886        5.40688
H          2.89534        1.64290        7.69057
H          4.40096       -0.20440        7.80839
H          4.64574       -0.72247        6.14010
H          3.85176       -1.80306        7.28226
H         -5.59557        1.70418        7.53135
H         -6.19561        1.79889        5.89188
H         -2.48934        5.76062        9.21286
H         -4.09544        5.12651        8.92489
H         -2.50555        2.29297        9.57104
H         -0.99425        3.17760        9.58059
H         -4.97064        6.08371        4.75137
H         -3.83194        6.50873        3.49083
H         -4.69392        2.53325        2.23372
H         -4.75545        4.20517        1.71789
H         -1.92865       -1.54921        6.40571
H         -3.58197       -1.13684        6.81421
H         -4.07278       -0.36524        3.73046
H         -2.42023       -0.86842        3.44649
H         -0.87326        5.85859        4.32575
H         -0.02285        5.42733        8.50619
H         -2.41770        5.29705        1.60005
H         -0.56811        1.62975        2.82982
H         -0.09629       -0.89668        4.71289
H          0.73106        2.60790        7.03939
H         -3.33944        6.17226        7.73836
H         -1.20942        1.82147        8.48660
H         -3.26436        6.23441        5.12966
H         -5.91867        3.60576        2.88211
H         -2.25284       -0.40159        7.68738
H         -2.94619        0.73348        2.95545
H         -6.12964        3.23774        6.88290
H          0.40281        7.95608        4.30083
