79
CSD_code = ZIPJUF | q = 0 | S = 0 | Stoichiometry = C21H50N3Si4Y | MND = 8
Y         11.64731       14.79514       -4.84112
C         13.48594       13.65795       -3.39100
C         12.81984       12.63952       -4.15207
C         11.52529       12.44971       -3.56690
C         11.39888       13.34867       -2.47726
C         12.59934       14.09066       -2.36931
C         13.46152       11.61565       -5.05519
H         14.45835       11.91678       -5.37167
H         12.86165       11.42599       -5.94447
H         13.56291       10.67003       -4.51628
C         10.63574       11.26986       -3.85493
H          9.64752       11.40350       -3.41927
H         11.06963       10.36553       -3.42064
H         10.52210       11.10005       -4.92579
C         10.26875       13.43276       -1.49344
H          9.36240       12.97895       -1.88738
H         10.05261       14.47201       -1.25097
H         10.53195       12.91467       -0.56843
C         12.90923       15.00920       -1.22244
H         12.84808       14.45592       -0.28329
H         12.19612       15.83134       -1.17150
H         13.91042       15.42490       -1.30316
C         14.89400       14.15206       -3.59139
H         15.44636       13.46289       -4.23284
H         15.41774       14.17921       -2.63133
C         14.93577       15.57355       -4.18065
H         14.58721       16.27666       -3.41854
H         15.97598       15.83123       -4.44113
N         14.06600       15.74677       -5.35956
C         14.05644       17.17113       -5.71432
H         15.07797       17.53191       -5.90510
H         13.62088       17.75781       -4.90678
H         13.46142       17.31873       -6.61403
C         14.62360       15.01429       -6.50425
H         13.96780       15.13834       -7.36573
H         14.69203       13.95331       -6.27710
H         15.62715       15.38716       -6.75656
N         10.45286       16.34021       -3.83767
Si        11.05251       17.81367       -3.18315
H         12.50701       17.60597       -2.87829
C         10.94706       19.33020       -4.33891
H         11.31264       19.10265       -5.33533
H         11.52943       20.16142       -3.95319
H          9.92150       19.66882       -4.43936
C         10.20202       18.31505       -1.55450
H          9.16540       18.58103       -1.73107
H         10.68993       19.16812       -1.09459
H         10.20840       17.50247       -0.83621
Si         8.75512       16.06782       -3.89490
H          8.15892       15.85831       -2.54607
C          7.73001       17.44764       -4.71867
H          7.66807       18.31358       -4.06844
H          6.71560       17.12470       -4.93008
H          8.18139       17.76825       -5.65212
C          8.49304       14.44035       -4.86680
H          8.68361       14.57649       -5.92958
H          7.47102       14.08669       -4.76190
H          9.14843       13.64626       -4.49769
N         11.18362       14.77429       -7.01305
Si        10.80903       16.26138       -7.80699
H         11.11911       17.35802       -6.84048
C         11.88257       16.56388       -9.36295
H         12.94663       16.53101       -9.14732
H         11.66865       17.53448       -9.79871
H         11.68331       15.81466      -10.12195
C          9.00495       16.51387       -8.37623
H          8.78784       15.96528       -9.28657
H          8.81390       17.56402       -8.57755
H          8.29597       16.19221       -7.62072
Si        11.03337       13.27118       -7.84530
H         10.69571       12.22340       -6.82934
C          9.67664       13.15219       -9.17652
H          8.70501       13.42360       -8.77846
H          9.60125       12.14129       -9.56505
H          9.88631       13.80894      -10.01416
C         12.64882       12.73693       -8.72499
H         12.95157       13.47005       -9.46612
H         12.50713       11.79237       -9.24057
H         13.47482       12.60992       -8.03341
