89
CSD_code = ZUDYAY | q = 0 | S = 0 | Stoichiometry = C28H52N4Si4Ti | MND = 6
Ti        -0.40122        1.69543        4.43438
C          0.73552        0.36441        3.27558
N          1.11181        1.96574        5.81932
C          1.67284        2.91321        5.09436
N          1.02458        3.28267        4.01885
Si         1.71246        1.16699        7.23190
C          3.57732        1.35182        7.64009
C          1.40942       -0.70609        6.95322
C          0.72365        1.80192        8.74980
Si         1.43044        4.45522        2.82978
C         -0.25249        4.98959        2.10524
C          2.34304        6.02218        3.45234
C          2.48907        3.64812        1.44543
C          2.99379        3.50532        5.42961
C          3.13690        4.46277        6.42537
C          4.37680        5.02472        6.67615
C          5.48371        4.62689        5.94572
C          5.34785        3.66413        4.95915
C          4.10807        3.10936        4.69814
H          0.45899       -0.69227        3.37023
H          1.80118        0.43922        3.53851
H          0.64788        0.62274        2.21321
H          3.83680        2.36019        7.94391
H          4.20094        1.09898        6.78811
H          3.84749        0.68566        8.45373
H          0.51339       -1.04120        7.46465
H          2.23535       -1.30372        7.32590
H          1.28448       -0.92052        5.89375
H         -0.32854        1.92785        8.50807
H          1.09678        2.75922        9.10246
H          0.79454        1.10344        9.57728
H         -0.84506        5.51831        2.84683
H         -0.81222        4.11153        1.79461
H         -0.13354        5.64064        1.24485
H          1.86686        6.43474        4.33697
H          2.34176        6.79504        2.69012
H          3.37721        5.81383        3.70747
H          2.19984        2.61154        1.29099
H          3.54712        3.66414        1.68965
H          2.36594        4.16977        0.50168
H          2.27573        4.77023        6.99821
H          4.48052        5.77528        7.44636
H          6.45048        5.06524        6.14513
H          6.21084        3.34788        4.39126
H          3.99212        2.35968        3.92867
C         -1.53796        0.36441        5.59319
H         -1.26142       -0.69227        5.49853
H         -2.60361        0.43921        5.33026
H         -1.45033        0.62272        6.65556
N         -1.91425        1.96574        3.04945
C         -2.47529        2.91321        3.77441
N         -1.82703        3.28266        4.84994
Si        -2.23289        4.45522        6.03899
C         -0.54995        4.98959        6.76353
H          0.04261        5.51831        6.02194
H          0.00977        4.11153        7.07416
H         -0.66890        5.64065        7.62392
C         -3.14548        6.02217        5.41643
H         -2.66931        6.43473        4.53180
H         -3.14421        6.79504        6.17865
H         -4.17965        5.81382        5.16130
C         -3.29151        3.64812        7.42335
H         -3.00228        2.61154        7.57778
H         -4.34956        3.66415        7.17913
H         -3.16838        4.16977        8.36710
C         -3.79623        3.50532        3.43917
C         -3.93934        4.46277        2.44341
C         -5.17923        5.02474        2.19266
C         -6.28615        4.62689        2.92305
C         -6.15029        3.66410        3.90960
C         -4.91051        3.10934        4.17062
H         -4.79456        2.35969        4.94012
H         -7.01328        3.34790        4.47754
H         -7.25293        5.06523        2.72364
H         -5.28298        5.77525        1.42239
H         -3.07818        4.77020        1.87055
Si        -2.51490        1.16698        1.63688
C         -4.37977        1.35180        1.22870
H         -4.63925        2.36016        0.92488
H         -5.00339        1.09896        2.08068
H         -4.64994        0.68564        0.41507
C         -2.21185       -0.70609        1.91556
H         -1.31582       -1.04119        1.40413
H         -3.03778       -1.30373        1.54287
H         -2.08692       -0.92053        2.97502
C         -1.52610        1.80192        0.11897
H         -0.47390        1.92785        0.36069
H         -1.89923        2.75922       -0.23369
H         -1.59699        1.10344       -0.70851
