43
CSD_code = BURKUW | q = 0 | S = 0 | Stoichiometry = C12H24FeO3Si3 | MND = 9
Fe         4.24933        5.93945       10.22911
H          3.51162        5.62752       11.40528
C          3.72030        7.43731        9.57366
O          3.44352        8.42557        9.05242
C          6.07977        5.93283        9.28033
H          6.66077        6.77957        8.96216
C          6.22076        5.23568       10.49516
H          6.92978        5.44673       11.27391
C          5.30390        4.16064       10.47717
H          5.20647        3.41153       11.24189
C          4.66462        4.13449        9.21776
H          3.99586        3.37148        8.86510
C          5.11650        5.25224        8.49042
H          4.85201        5.50103        7.47854
Si         4.51224        7.30025       11.95293
O          3.08261        8.04818       12.24869
Si         1.50048        7.87248       11.90963
O          1.25888        6.76062       10.74600
Si         2.08264        5.57829        9.96180
C          5.79431        8.64684       11.52814
H          5.53830        9.15521       10.60673
H          6.77741        8.20858       11.40380
H          5.86001        9.39327       12.31177
C          5.04580        6.43294       13.56962
H          4.39326        5.59724       13.79484
H          5.01241        7.11779       14.40983
H          6.05707        6.05213       13.49415
C          0.87446        9.53374       11.24657
H          1.01202       10.32072       11.97949
H         -0.18132        9.48281       11.00538
H          1.40837        9.81999       10.34638
C          0.63743        7.25650       13.48562
H          0.75920        7.96252       14.29969
H          1.04796        6.30462       13.80786
H         -0.42567        7.11988       13.32078
C          1.47823        3.90330       10.65419
H          1.80550        3.76750       11.67875
H          1.86514        3.07637       10.07122
H          0.39570        3.84098       10.63874
C          1.62096        5.68286        8.11426
H          1.96061        6.61424        7.67743
H          0.54805        5.62038        7.96942
H          2.07871        4.87038        7.56238
