84
CSD_code = DOGGEM | q = 0 | S = 0 | Stoichiometry = C24H51AsN4Si3Zr | MND = 5
Zr         3.51592       13.48202        2.65412
As         3.60227       13.54029        0.04171
N          2.07208       12.12210        3.31324
N          5.48605       13.12394        3.21596
N          3.16759       15.53152        2.76328
N          3.43856       13.90334        5.05429
Si         2.44010       10.45051        3.33555
Si         6.83897       14.04149        2.72582
Si         1.87107       16.26826        1.93942
C          1.38553       12.70563        4.44699
H          0.61424       12.03436        4.85623
H          0.87813       13.63894        4.14463
C          5.44807       12.57338        4.55144
H          6.45370       12.34182        4.93551
H          4.87532       11.63108        4.55380
C          3.70690       16.08365        3.98078
H          3.47084       17.15064        4.09616
H          4.80535       15.98620        3.98114
C          2.38537       13.03449        5.57870
H          1.86851       13.49606        6.43569
H          2.82755       12.09434        5.91446
C          4.77885       13.56134        5.53473
H          4.74801       13.13866        6.55181
H          5.39234       14.46595        5.56128
C          3.12902       15.32576        5.19349
H          3.51178       15.73486        6.14335
H          2.04135       15.45805        5.17288
C          1.05423        9.35136        2.58326
H          1.21502        9.18803        1.52427
H          0.07282        9.80053        2.70478
H          1.02924        8.37780        3.06199
C          4.07910       10.22324        2.36159
H          4.55271       11.18838        2.12741
H          3.90349        9.69559        1.43106
H          4.79227        9.63100        2.92785
C          2.72409        9.63022        5.06492
H          3.61749        9.98013        5.57705
H          2.82502        8.55489        4.95508
H          1.87541        9.80406        5.72115
C          8.29998       12.93923        2.12686
H          7.96540       12.06111        1.58427
H          8.89081       12.59250        2.96966
H          8.96320       13.49602        1.47356
C          7.66730       15.14052        4.08334
H          7.06656       16.00223        4.36307
H          8.62250       15.51748        3.73212
H          7.86456       14.56701        4.98546
C          6.27552       15.23127        1.33681
H          6.28518       14.74522        0.36329
H          6.94790       16.08066        1.27612
H          5.26560       15.60884        1.51958
C          2.40258       16.98568        0.23662
H          2.96464       17.90714        0.35547
H          1.53843       17.21044       -0.38010
H          3.03152       16.28321       -0.31458
C          0.48161       14.95278        1.69780
H          0.88082       13.94850        1.87404
H          0.08522       14.98453        0.68768
H         -0.35657       15.10887        2.37257
C          1.07238       17.73495        2.88829
H          1.78171       18.54642        3.01028
H          0.72947       17.44550        3.87715
H          0.22016       18.13005        2.34742
C          3.43014       11.64385       -0.47331
C          2.22277       10.92979       -0.53533
C          2.21349        9.61141       -0.96816
H          1.27152        9.07982       -1.01860
C          3.37449        8.94992       -1.33613
C          4.57250        9.64606       -1.25311
H          5.49375        9.14494       -1.51952
C          4.60845       10.96631       -0.84035
C          0.93459       11.55087       -0.08378
H          0.12764       10.82208       -0.10176
H          0.65719       12.38194       -0.73423
H          1.05244       11.92119        0.94188
C          3.33771        7.53132       -1.82135
H          4.23528        6.99501       -1.51994
H          3.28393        7.51022       -2.91065
H          2.46702        7.00902       -1.43063
C          5.92005       11.68811       -0.74302
H          5.91583       12.54797       -1.42238
H          6.75015       11.03472       -1.00032
H          6.06183       12.06744        0.27634
H          2.15323       13.86576       -0.25940
