96
CSD_code = ELIZOQ | q = 0 | S = 0 | Stoichiometry = C29H61N2Si3Y | MND = 8
Y          7.10193        8.78879        2.32868
Si         4.00100        6.69430        2.06277
Si         7.53655        9.53484       -1.15645
Si        10.63211       11.36655        5.71390
N          9.27672        9.06610        3.15379
N          7.98231       10.84918        3.11063
C         10.36799       11.23285        3.79537
H         10.24508       12.23491        3.39366
H         11.27894       10.83834        3.35261
C          5.58204        8.59787        5.25789
C          9.20895       10.38381        3.34581
C          4.85813        8.64042        4.07267
C          5.22396        7.49149        3.25554
C          6.40948        7.43900        5.24481
C          7.52070       12.23300        3.10365
C          6.19092        6.75111        4.05748
C         10.45833        8.21596        3.06104
C          2.48488        5.99096        3.00109
H          1.95820        6.76447        3.55003
H          2.78709        5.23545        3.71940
H          1.77715        5.53308        2.31670
C          5.49459        9.58617        6.38334
H          5.83818        9.13784        7.31239
H          4.46640        9.91491        6.53037
H          6.10772       10.46929        6.18583
C          3.71014        9.56534        3.77124
H          3.71932       10.42667        4.43540
H          2.76293        9.04348        3.92242
H          3.72812        9.92487        2.74270
C          7.29290        7.00206        6.37579
H          7.68792        7.85821        6.91781
H          8.13573        6.41370        6.01557
H          6.73407        6.38419        7.08278
C          5.98571       12.15326        3.01414
H          5.68504       11.53572        2.16251
H          5.55689       13.14575        2.88911
H          5.59231       11.71231        3.92714
C          9.32610       10.32617        6.63845
H          8.67588        9.81339        5.93331
H          8.70169       10.94195        7.27952
H          9.78914        9.57502        7.27205
C          6.68186        5.36689        3.73441
H          7.52757        5.09542        4.36296
H          6.98077        5.27136        2.69039
H          5.89003        4.63958        3.92486
C          8.02825       12.97952        1.85559
H          9.11430       13.01073        1.82315
H          7.65594       14.00188        1.85839
H          7.67769       12.47874        0.95563
C          7.84383       13.04005        4.37076
H          7.77213       12.39817        5.24401
H          7.12864       13.85316        4.47875
H          8.83453       13.47430        4.32897
C         10.58014       13.19017        6.30732
H         11.14292       13.28599        7.23112
H          9.57693       13.54821        6.50940
H         11.03433       13.86638        5.58822
C          9.92386        6.77312        2.97743
H          9.40313        6.52863        3.90093
H         10.74388        6.07055        2.84002
H          9.23127        6.66790        2.13675
C          4.71114        5.23471        1.04324
H          4.03111        4.98779        0.23360
H          4.82697        4.34245        1.64775
H          5.67516        5.46391        0.59983
C         11.23528        8.50658        1.76349
H         10.57990        8.36970        0.90461
H         12.08189        7.82904        1.67521
H         11.60965        9.52697        1.74323
C          7.26522        8.12381        0.06386
H          8.09349        7.41031       -0.04601
H          6.36689        7.57797       -0.24571
C          3.36198        7.96999        0.77386
H          2.49961        8.51299        1.14599
H          3.05270        7.46879       -0.13818
H          4.12600        8.69786        0.50336
C         12.40825       10.82633        6.19854
H         12.70649       11.33138        7.11250
H         13.13682       11.09315        5.43731
H         12.49696        9.76120        6.38124
C          7.68221        9.02641       -2.99945
H          8.52288        8.35788       -3.15705
H          7.82346        9.88754       -3.64539
H          6.78822        8.50946       -3.33362
C         11.40467        8.26330        4.27002
H         12.07654        9.11050        4.22070
H         12.01069        7.35966        4.29547
H         10.82548        8.31745        5.18722
C          6.03525       10.72518       -1.03810
H          5.16420       10.29842       -1.52551
H          6.23858       11.67766       -1.51741
H          5.76686       10.92605       -0.00108
C          9.13895       10.48692       -0.71124
H          9.24318       10.59695        0.36555
H          9.15190       11.47903       -1.15237
H         10.01604        9.96215       -1.07720
