89
CSD_code = ERIBUC | q = 0 | S = 0 | Stoichiometry = C29H54N2Si3Zr | MND = 12
C         15.20499        9.67205        4.21668
H         15.59859        9.74891        5.22853
C         15.67701        8.77091        3.23135
H         16.32213        7.92751        3.43025
C         15.30759        9.25229        1.96638
C         14.60156       10.44987        2.15615
H         14.22616       11.08546        1.37112
C         14.54864       10.75754        3.52467
C         12.74385       10.29237        6.47466
H         13.55669       10.47822        7.16717
C         12.45579       11.11733        5.35301
C         11.23730       10.64010        4.79884
H         10.67629       11.12340        4.00910
C         10.76443        9.58905        5.61430
H          9.77912        9.14578        5.54654
C         11.68171        9.38526        6.67484
C         11.79347        6.43920        4.54021
H         10.95080        7.15296        4.58653
H         11.51655        5.55538        5.13442
C         11.95793        5.98683        3.07768
H         12.52613        5.05528        3.04091
H         10.97046        5.81150        2.64402
C         12.70121        7.05516        2.25857
H         13.76675        7.02527        2.54110
H         12.62387        6.77725        1.19795
C          9.11110        8.64852        2.56555
H          9.03786        7.66185        3.01673
H          8.28589        8.74266        1.86620
H          8.94832        9.38275        3.34829
C         10.54626        8.02271       -0.02677
H         11.42430        8.09978       -0.65984
H          9.71616        8.46038       -0.57157
H         10.32647        6.96787        0.10668
C         11.01936       10.78227        1.30045
H         11.84205       11.19091        1.88226
H         10.11807       11.34137        1.52944
H         11.24103       10.95184        0.25242
C         15.49070        7.25207        6.51582
H         16.38033        7.44058        5.92514
H         15.81911        6.79344        7.44223
H         15.02998        8.20724        6.76280
C         13.69390        4.72914        6.82935
H         13.16398        5.14194        7.68225
H         14.54129        4.16907        7.21155
H         13.03112        4.01671        6.34667
C         15.27981        5.09165        4.28663
H         14.72091        4.23080        3.93022
H         16.20323        4.71555        4.71723
H         15.54518        5.68718        3.41804
C         14.94742       12.97479        5.72132
H         15.47993       12.23177        6.30635
H         14.41788       13.62224        6.41272
H         15.68942       13.57774        5.20873
C         13.00332       13.56623        3.38884
H         13.76337       13.98233        2.73683
H         12.63046       14.37016        4.01416
H         12.18390       13.22554        2.76656
C         11.37608        8.63803        7.96003
C         10.52086        9.57474        8.83221
H         11.05672       10.49985        9.03161
H         10.28230        9.09928        9.78150
H          9.59174        9.82381        8.32523
C         12.65466        8.27733        8.72101
H         13.29006        7.64908        8.10245
H         12.40332        7.73114        9.62850
H         13.20471        9.16862        9.01249
C         10.59639        7.34670        7.69663
H          9.66063        7.54565        7.18067
H         10.35981        6.85790        8.64027
H         11.19733        6.67037        7.09606
C         15.73287        8.71947        0.61602
C         16.14460        7.24567        0.68026
H         16.97189        7.10384        1.37126
H         16.47006        6.90959       -0.30293
H         15.31147        6.62136        0.99365
C         14.59347        8.87922       -0.39756
H         13.67129        8.47456        0.00996
H         14.83314        8.36028       -1.32422
H         14.42993        9.92760       -0.63061
C         16.94451        9.54130        0.14492
H         16.69147       10.59760        0.10226
H         17.26421        9.21862       -0.84425
H         17.77509        9.41924        0.83640
N         12.20598        8.40298        2.48437
N         12.98196        7.08181        5.08152
Si        10.79959        8.91002        1.65720
Si        14.27242        6.09019        5.59699
Si        13.74201       12.17427        4.46510
Zr        12.97199        8.98075        4.29594
