145
CSD_code = FABVEK | q = 0 | S = 0 | Stoichiometry = C42H95O4Si3Ta | MND = 5
Ta         8.46042       13.03990        0.68251
Si         9.68079       10.71134        3.07763
Si        10.61270       12.97425       -2.10670
Si         5.25518       14.11201        1.70221
O          9.17496       11.85205        2.03242
O          9.93139       12.99126       -0.62472
O          6.78588       13.58555        1.50466
O         10.85764       16.44966        2.30579
C          9.15879       15.13619        1.31796
C         10.63384       15.20126        1.66886
C         12.20048       16.82510        2.60544
C         12.99686       17.12457        1.32748
C         12.92796       15.76235        3.43871
C         12.04501       18.10893        3.42745
C         11.54024       10.33059        2.60009
C         12.33384        9.66240        3.72350
C         11.61746        9.42209        1.37000
C         12.22670       11.64395        2.21219
C          8.50699        9.16171        2.81543
C          8.24086        8.96108        1.31852
C          9.07824        7.86864        3.40296
C          7.14201        9.39170        3.46852
C          9.50598       11.53240        4.84743
C         10.54434       12.64183        5.04335
C          8.13232       12.20386        4.95517
C          9.65828       10.53343        5.99540
C         10.13197       14.66644       -2.99208
C         10.33175       14.63700       -4.50989
C         10.94330       15.84355       -2.43907
C          8.66571       15.00222       -2.70934
C         12.56602       12.80226       -1.93696
C         13.29395       13.12787       -3.24297
C         13.11408       13.73267       -0.85088
C         12.97041       11.38389       -1.52638
C          9.83103       11.41766       -3.03085
C          9.76029       10.24215       -2.05026
C          8.39155       11.68425       -3.48383
C         10.61292       10.97387       -4.27076
C          4.68092       14.91037       -0.00132
C          5.77187       15.85062       -0.52334
C          3.37138       15.69803        0.09773
C          4.49090       13.83410       -1.07539
C          5.23045       15.44203        3.14884
C          6.14144       15.00972        4.30077
C          3.82070       15.65547        3.70476
C          5.74985       16.80772        2.68496
C          4.23447       12.48757        2.12306
C          2.72372       12.63579        1.93140
C          4.47133       12.06493        3.57611
C          4.73008       11.34016        1.23391
H          8.95108       15.92853        0.59028
H          8.60445       15.39181        2.22509
H         10.89863       14.38104        2.35234
H         11.24402       15.11464        0.76208
H         12.41634       17.77315        0.67585
H         13.23814       16.21116        0.79071
H         13.92663       17.62513        1.58311
H         12.32198       15.47961        4.29658
H         13.87140       16.16557        3.79652
H         13.13878       14.87530        2.84597
H         11.51617       18.85467        2.84099
H         13.01665       18.50079        3.71376
H         11.46408       17.90277        4.32196
H         13.34070        9.42480        3.37914
H         11.85786        8.73854        4.04025
H         12.42504       10.31375        4.58748
H         12.65281        9.33030        1.03838
H         11.02911        9.84009        0.55806
H         11.25765        8.42121        1.58671
H         13.22448       11.44944        1.81717
H         12.33009       12.30916        3.06289
H         11.63666       12.14713        1.44686
H          7.47267        8.20089        1.17337
H          9.13083        8.63863        0.78962
H          7.88717        9.89220        0.86733
H          8.36235        7.05577        3.27962
H          9.28011        7.98215        4.46455
H         10.00082        7.57358        2.91394
H          6.45841        8.58587        3.19842
H          6.71410       10.32786        3.12768
H          7.21764        9.40590        4.55171
H         10.37327       13.14707        5.99506
H         10.46063       13.38065        4.25024
H         11.55663       12.24866        5.05950
H          8.12060       12.91580        5.78059
H          7.35045       11.47576        5.14073
H          7.90357       12.73765        4.03437
H          9.54674       11.04460        6.95181
H         10.63444       10.05813        5.97802
H          8.90233        9.75537        5.94379
H         10.08981       15.61159       -4.93461
H          9.68544       13.90225       -4.97876
H         11.35833       14.40222       -4.77083
H         10.56096       16.78073       -2.84571
H         11.99071       15.77327       -2.71549
H         10.86108       15.88879       -1.35690
H          8.41549       15.97541       -3.13317
H          8.50324       15.03930       -1.63385
H          7.98926       14.26869       -3.13068
H         14.36076       12.93192       -3.12999
H         13.17874       14.17338       -3.51016
H         12.92582       12.52133       -4.06362
H         14.18628       13.57178       -0.72781
H         12.62818       13.52757        0.09714
H         12.96153       14.77511       -1.10562
H         14.04174       11.34678       -1.32288
H         12.76324       10.66450       -2.31194
H         12.44294       11.08907       -0.62809
H          9.20612        9.41355       -2.49256
H          9.24916       10.55111       -1.13761
H         10.74985        9.88066       -1.79259
H          7.95565       10.76679       -3.88182
H          8.35279       12.43091       -4.27070
H          7.78100       12.01392       -2.64743
H         10.10272       10.13886       -4.75173
H         11.61520       10.64452       -4.01750
H         10.69075       11.78136       -4.99263
H          5.56345       16.13194       -1.55561
H          6.73497       15.34558       -0.48900
H          5.83513       16.76017        0.06178
H          3.08854       16.07111       -0.88671
H          3.47147       16.55309        0.75859
H          2.56310       15.07504        0.46759
H          4.30495       14.30357       -2.04206
H          3.64065       13.19700       -0.85362
H          5.38467       13.22134       -1.16040
H          6.15210       15.77654        5.07635
H          7.15773       14.87451        3.94181
H          5.80842       14.08241        4.75155
H          3.83249       16.44553        4.45593
H          3.44089       14.75566        4.17761
H          3.12839       15.94541        2.92080
H          5.85021       17.47288        3.54366
H          5.06242       17.27797        1.98905
H          6.72390       16.71537        2.21442
H          2.21934       11.71917        2.23810
H          2.47010       12.82173        0.89271
H          2.33266       13.45280        2.53042
H          4.04658       11.07648        3.75574
H          4.00071       12.75504        4.26985
H          5.53319       12.02649        3.79157
H          4.32770       10.38975        1.58536
H          5.81858       11.28883        1.25368
H          4.42121       11.47384        0.20345
H          7.48322       12.73407       -0.64616
