95
CSD_code = FUDSEE | q = 0 | S = 0 | Stoichiometry = C29H56I2NO3Si3Y | MND = 7
Y         10.12649        4.68067       11.65615
I         11.89091        2.56720       12.34857
I          7.96045        6.50190       11.91938
Si        11.48588        6.45558        8.39623
Si        11.32262        6.48507        6.03394
Si        13.70017        6.63578        9.24640
O         11.50936        6.25594       13.22316
O          8.33273        2.80695       11.30497
O          9.27125        4.08052       14.15688
N         10.17918        4.03563        9.11324
C         10.69889        5.11067        9.53524
C         10.02399        3.44413        7.87534
C         11.05534        2.64810        7.35038
C         10.80915        1.91122        6.20497
H         11.59955        1.29956        5.79325
C          9.57159        1.94469        5.58400
H          9.39792        1.36396        4.69073
C          8.55665        2.72004        6.11696
H          7.58770        2.74440        5.63765
C          8.76128        3.46967        7.26315
C         12.38542        2.60061        8.04066
H         13.04723        1.89338        7.54723
H         12.26615        2.29356        9.08014
H         12.85815        3.58353        8.03828
C          7.67045        4.32268        7.83912
H          6.69025        3.95690        7.53962
H          7.76849        5.35178        7.49164
H          7.73195        4.33822        8.92766
C         11.98054        8.21017        5.51692
H         12.01436        8.31788        4.43655
H         12.98673        8.37373        5.89202
H         11.35632        9.00981        5.90375
C         12.46067        5.18332        5.22226
H         12.50978        5.32989        4.14675
H         12.09158        4.17774        5.39527
H         13.47506        5.23452        5.60307
C          9.61188        6.25472        5.20469
H          8.85316        6.90684        5.62677
H          9.26638        5.23089        5.31147
H          9.66700        6.46977        4.13988
C         15.03054        6.18494        7.95171
H         16.03010        6.33824        8.34751
H         14.93688        6.79899        7.06159
H         14.96190        5.14593        7.64513
C         14.07534        8.44009        9.77848
H         13.38685        8.79585       10.53937
H         13.99246        9.11197        8.92954
H         15.08271        8.54240       10.17327
C         14.03592        5.53222       10.77416
H         14.96526        5.78867       11.27747
H         14.09768        4.48311       10.49871
H         13.22825        5.63204       11.49619
C         10.58710        8.03851        9.06435
H         10.52613        7.99826       10.15528
H         11.18524        8.91747        8.82176
C          9.18015        8.23445        8.51534
H          9.20462        8.38558        7.43844
H          8.70216        9.10090        8.97026
H          8.55961        7.36699        8.72799
C         12.38309        5.82294       14.28301
H         13.26604        5.34781       13.83825
H         11.85786        5.08129       14.89010
C         12.77367        7.07194       15.06570
H         13.75269        6.97249       15.52709
H         12.03593        7.28727       15.84003
C         12.72465        8.14150       13.97832
H         12.60723        9.14873       14.36953
H         13.62332        8.09757       13.36201
C         11.51169        7.69098       13.17475
H         10.58211        8.06575       13.62430
H         11.55102        8.00061       12.12635
C          8.62852        1.54637       10.68143
H          9.01716        0.85461       11.44190
H          9.39503        1.70335        9.91924
C          7.31283        1.03795       10.10793
H          7.12460        1.49642        9.13681
H          7.30413       -0.04338        9.99898
C          6.31795        1.54992       11.14592
H          5.30323        1.63408       10.76523
H          6.31501        0.89651       12.02002
C          6.91122        2.91197       11.49259
H          6.71453        3.21802       12.52427
H          6.52083        3.68663       10.82100
C          8.95777        2.77163       14.62725
H          8.83818        2.11895       13.76231
H          9.79244        2.39718       15.23552
C          7.68041        2.90194       15.47893
H          6.81729        2.46714       14.97729
H          7.80634        2.39504       16.43409
C          7.52015        4.41900       15.66042
H          7.28698        4.70156       16.68370
H          6.74429        4.81167       15.00296
C          8.88211        4.94779       15.21235
H          8.84831        5.96945       14.83555
H          9.60968        4.88095       16.03601
