93
CSD_code = GUKRAH | q = 0 | S = 0 | Stoichiometry = C34H48Cl2N2P2SSi3Zr | MND = 6
Zr         4.69789       -1.42003        5.07867
C          7.22378       -1.14756        4.68496
H          8.17321       -1.65227        4.47448
C          7.90657       -1.72760        7.37427
C          9.18149       -2.23005        7.12866
H          9.78381       -1.81471        6.33120
C          9.67812       -3.26418        7.90022
H         10.66820       -3.65143        7.70822
C          8.90288       -3.80935        8.91169
H          9.29191       -4.62188        9.50691
C          7.62927       -3.32092        9.15159
H          7.01867       -3.75388        9.92888
C          7.13075       -2.28281        8.38418
H          6.13074       -1.90476        8.54553
C          8.14936        1.08400        6.55076
C          9.39376        1.12098        7.16453
H          9.80753        0.22664        7.60746
C         10.09558        2.31258        7.22407
H         11.06279        2.33985        7.70436
C          9.56227        3.46620        6.67426
H         10.11691        4.39144        6.71995
C          8.31207        3.43578        6.07700
H          7.88764        4.33553        5.65768
C          7.60830        2.24873        6.01565
H          6.62466        2.21457        5.56502
C          8.16957        1.32602        3.17815
C          7.83401        2.52474        2.56248
H          6.81432        2.68255        2.24093
C          8.79445        3.50388        2.38901
H          8.53057        4.43682        1.91379
C         10.09034        3.29147        2.83016
H         10.83778        4.06015        2.70273
C         10.42920        2.09421        3.43812
H         11.43860        1.92770        3.78433
C          9.47187        1.11209        3.60986
H          9.73506        0.18324        4.09862
C          6.94816       -0.87770        1.85630
C          8.16598       -1.38431        1.41604
H          9.06109       -1.22945        2.00321
C          8.23143       -2.07525        0.22056
H          9.17646       -2.47178       -0.12074
C          7.08600       -2.25691       -0.53934
H          7.14188       -2.79784       -1.47211
C          5.87517       -1.74510       -0.10436
H          4.98462       -1.88170       -0.69862
C          5.80321       -1.05450        1.09240
H          4.86437       -0.64377        1.43570
C          3.97709        2.22843        7.04423
H          4.65875        3.07270        6.98663
H          3.12508        2.53668        7.63995
H          3.61339        2.01526        6.04132
C          6.11504        1.27634        9.10115
H          6.87693        0.51949        9.26991
H          5.64976        1.49718       10.05481
H          6.61927        2.17729        8.76752
C          3.55490       -0.42413        8.74745
H          2.85553       -0.89180        8.05916
H          2.98112        0.17788        9.44489
H          4.03284       -1.21741        9.31651
C          6.77078       -4.21132        4.82520
H          7.67859       -3.90370        4.31519
H          6.93930       -5.22238        5.18338
H          6.62823       -3.58220        5.70392
C          5.97780       -4.79198        1.96087
H          5.20353       -4.90775        1.21369
H          6.47593       -5.74874        2.07228
H          6.70338       -4.08437        1.57440
C          4.14090       -5.64141        4.29719
H          3.79552       -5.43256        5.30519
H          4.68548       -6.58039        4.32234
H          3.26784       -5.78634        3.67128
C          2.54930       -3.72505        1.39656
H          3.24149       -3.47528        0.60073
H          1.54355       -3.59149        1.01430
H          2.67945       -4.77534        1.62569
C          1.60500       -3.23368        4.29208
H          1.17405       -4.19716        4.03625
H          0.78605       -2.53398        4.43032
H          2.10425       -3.33820        5.25514
C          2.33772       -0.86858        2.32568
H          2.86389       -0.06063        2.82934
H          1.27932       -0.71402        2.51120
H          2.48970       -0.76215        1.25498
Cl         2.59884       -0.47778        5.49631
Cl         4.28710       -3.02997        6.74797
N          5.61208       -0.19486        6.55908
N          4.48072       -2.68016        3.48941
P          7.16456       -0.43722        6.31860
P          6.86350        0.05404        3.42775
S          5.11586        0.93997        3.66205
Si         4.80407        0.69147        7.82967
Si         5.25115       -4.22170        3.64113
Si         2.83141       -2.62465        2.93955
