90
CSD_code = ILEVOL | q = 0 | S = 0 | Stoichiometry = C27H59RhSi3 | MND = 9
H         13.14041        8.77975        3.07989
H         10.48979        8.63217        3.21099
C         15.99588        6.34679        3.88668
H         15.52893        6.68015        2.96690
H         16.02453        5.26161        3.87354
H         17.02589        6.69008        3.86645
C         11.22003       13.11665        2.30377
H         10.38237       13.37160        2.94693
H         11.04793       13.57592        1.33082
H         12.11948       13.55450        2.72782
C         17.02330        5.82862        7.10663
H         17.45669        6.81135        7.27371
H         17.47985        5.40034        6.21802
H         17.27978        5.19666        7.95690
C         14.55331        7.65875        0.50271
H         14.25641        8.30016       -0.32181
H         15.47204        7.14563        0.21935
H         14.76537        8.29566        1.35909
C          9.02288        6.61599        1.25455
H          8.84859        7.03919        2.24080
H          8.31082        5.80620        1.09683
H          8.82445        7.39174        0.52043
C         11.30771        8.25582       -1.33485
H         12.22545        7.74842       -1.61917
H         11.12759        9.05467       -2.05357
H         10.48917        7.54562       -1.41190
C         14.94731        4.51008        6.75989
H         15.22065        3.87939        7.60612
H         15.34065        4.04767        5.85812
H         13.86241        4.53316        6.69367
C         15.94933        8.75567        5.69608
H         16.98459        8.70779        5.37181
H         15.95833        9.06655        6.73623
H         15.46846        9.53643        5.11786
C         14.91421        6.48548        8.24204
H         13.82917        6.51989        8.18373
H         15.28341        7.48852        8.44032
H         15.18709        5.85491        9.08852
C          8.94004       11.03685        4.56912
H          8.74581       11.51403        3.61272
H          8.20568       11.40032        5.28767
H          8.79571        9.96668        4.44227
C         11.36061       11.60457        2.16143
H         12.15656       11.39296        1.45068
H         10.44707       11.20858        1.72234
C         10.45575        6.11714        1.13129
H         10.60473        5.71549        0.12838
H         10.59588        5.27775        1.81089
C         11.40943        8.82305        0.07738
H         10.47830        9.33265        0.31710
H         12.18607        9.58464        0.09299
C         10.35777       11.33455        5.03660
H         10.49182       10.92649        6.03744
H         10.47682       12.41386        5.13769
C         13.45098        6.66108        0.83367
H         13.82240        5.96229        1.58105
H         13.23534        6.06828       -0.05604
C         15.50490        5.92115        6.94951
C          9.86436        5.55122        4.72147
H         10.00538        4.88156        3.87814
H          8.93309        6.09473        4.57791
H          9.76145        4.94312        5.62419
C          9.81910        8.03211        6.58059
H          9.73036        7.34662        7.42767
H          8.89590        7.97581        6.00808
H          9.92034        9.04005        6.97216
C         12.82223        4.88525        3.98408
H         12.63286        4.07010        4.68609
H         13.88071        4.90029        3.75653
H         12.27427        4.66622        3.07001
C         13.21666        7.18176        5.21338
C         12.74511        8.99523        7.06574
H         12.17484        9.92014        7.01037
H         13.79923        9.23556        7.00711
H         12.54886        8.54441        8.04115
C         11.02859        6.47984        4.89311
C         12.38108        6.17752        4.59888
C         11.00719        7.63408        5.75780
C         12.34670        8.03325        5.98948
Rh        11.86910        8.26749        3.73138
Si        11.73932       10.68377        3.82511
Si        15.10525        7.05822        5.42539
Si        11.79841        7.49687        1.43719
C         13.35875       11.53838        4.48900
H         13.11226       12.55447        4.79926
H         13.72352       11.02955        5.37944
C         14.48185       11.59834        3.46189
H         14.72630       10.60146        3.10066
H         15.38111       12.03879        3.89198
H         14.18797       12.19823        2.60564
