86
CSD_code = JIKVUX | q = 0 | S = 0 | Stoichiometry = C25H53N2O2ScSi3 | MND = 4
Sc         3.27403        6.80082        3.95186
Si         4.15736        6.83975        7.38739
Si        -0.37075        7.09245        4.18123
Si         6.55009        7.06133        2.51262
O          2.30669        1.73592        1.20876
O          1.31854        4.32286       -0.86514
N          2.13789        5.25335        1.04189
N          2.71358        3.68651        2.31028
C          4.03616        5.74060        5.86089
H          3.47795        4.83783        6.15652
H          5.05555        5.37669        5.63898
C          2.65910        5.03885        2.27206
C          1.87191        4.09335        0.34510
C          2.23836        3.08424        1.16320
C          1.26305        7.96945        3.87842
H          1.35593        8.73661        4.66879
H          1.17541        8.55051        2.94396
C          4.99390        8.01648        2.96986
H          4.65604        8.58845        2.09032
H          5.30116        8.79141        3.69145
C          1.80817        6.40076        0.22864
H          1.20466        7.10735        0.80762
C          2.01661        2.64334        4.43026
H          1.99484        3.66131        4.84138
C          3.05073        2.67718        3.28648
H          4.04092        2.86967        3.71203
C          0.61186        2.30427        3.93963
H          0.27692        3.02381        3.19613
H          0.56548        1.30814        3.50586
H         -0.08227        2.34130        4.77498
C          3.06993        1.42585        2.37657
H          4.09507        1.18639        2.06917
H          2.62628        0.54690        2.84316
C          3.08045        7.11696       -0.26643
H          3.67818        7.31337        0.63374
C         -0.92403        6.08215        2.64039
H         -1.84920        5.54988        2.83738
H         -1.10084        6.72825        1.78559
H         -0.17745        5.34607        2.35697
C          4.96358        8.50624        6.88723
H          5.06457        9.17670        7.73505
H          5.95450        8.35637        6.46946
H          4.35880        9.01272        6.13368
C          2.46956        1.68450        5.52734
H          3.45535        1.96016        5.89417
H          1.77369        1.72312        6.36094
H          2.50947        0.65957        5.16511
C          0.96539        5.70905       -0.86869
H         -0.10455        5.79508       -0.64406
H          1.15188        6.09882       -1.86850
C          5.16360        6.14846        8.87082
H          5.18471        6.84386        9.70486
H          4.74021        5.21637        9.23372
H          6.19258        5.94945        8.58582
C         -0.14987        5.84113        5.62212
H         -0.72763        4.93496        5.46830
H          0.90090        5.56320        5.73052
H         -0.46948        6.27153        6.56544
C          6.10521        5.22403        2.13227
H          6.98629        4.63589        1.89399
H          5.62449        4.76825        2.99859
H          5.42262        5.14160        1.29068
C          7.78076        7.00961        3.97788
H          8.60561        6.32803        3.79396
H          8.20317        7.99048        4.17060
H          7.27775        6.68528        4.88466
C          2.40147        7.24583        8.04009
H          2.43772        7.96122        8.85567
H          1.78527        7.67094        7.25106
H          1.89863        6.35762        8.40920
C          2.71816        8.45061       -0.91295
H          2.17846        9.08130       -0.21073
H          3.62177        8.97272       -1.21543
H          2.09766        8.30485       -1.79468
C          3.91267        6.25428       -1.21186
H          4.85996        6.74671       -1.41542
H          4.12923        5.28501       -0.76821
H          3.40588        6.09251       -2.16034
C         -1.88270        8.19069        4.62446
H         -2.76937        7.59980        4.83686
H         -1.67497        8.79403        5.50334
H         -2.12991        8.87214        3.81538
C          7.50565        7.69325        0.97054
H          8.36959        7.07501        0.74574
H          6.86969        7.69731        0.08995
H          7.85946        8.70859        1.11946
