76
CSD_code = KULKAD | q = 0 | S = 0 | Stoichiometry = C33H36N3RhSi3 | MND = 6
Rh         0.62665       -2.75067       -9.87096
Si         0.84045       -4.12794      -11.73064
C         -0.06018       -3.86834      -13.42055
C          0.78744       -6.05413      -11.47031
N          2.81957       -2.31977      -10.28137
C          3.49558       -1.47540       -9.53958
C          4.83009       -1.11999       -9.77836
C          5.47916       -1.68038      -10.84402
C          4.78630       -2.59150      -11.66486
C          5.39085       -3.21061      -12.77646
C          4.67715       -4.08845      -13.54309
C          3.33980       -4.36987      -13.23013
C          2.70210       -3.79335      -12.16149
C          3.42871       -2.89032      -11.35364
Si         0.08403       -0.82410      -11.05250
C         -1.59717       -0.50539      -11.95075
C          1.40300       -0.07392      -12.26803
N          0.59952       -1.33345       -8.09185
C          0.81558       -1.76783       -6.87329
C          0.77650       -0.95217       -5.73417
C          0.49979        0.37855       -5.88763
C          0.25862        0.88234       -7.18069
C         -0.02930        2.24120       -7.41527
C         -0.25740        2.68267       -8.68836
C         -0.21402        1.78343       -9.76309
C          0.05970        0.45062       -9.59074
C          0.30908       -0.01975       -8.28212
Si        -1.55811       -3.34974       -9.34771
C         -2.84231       -4.07655      -10.59567
C         -2.61645       -2.15097       -8.24219
N          1.13783       -4.52445       -8.54876
C          2.38126       -4.90035       -8.36793
C          2.76000       -5.99146       -7.57382
C          1.78590       -6.71514       -6.94260
C          0.43787       -6.34591       -7.11734
C         -0.61823       -7.04198       -6.49718
C         -1.91064       -6.64574       -6.69836
C         -2.18996       -5.55205       -7.52986
C         -1.20048       -4.84065       -8.15906
C          0.14177       -5.22912       -7.95069
H          0.11391       -2.87199      -13.80989
H         -1.12917       -3.99448      -13.30112
H          0.27737       -4.58404      -14.16361
H         -0.17412       -6.35379      -11.06770
H          1.55234       -6.39242      -10.77796
H          0.93314       -6.58149      -12.40788
H          2.97890       -1.03607       -8.69526
H          5.31978       -0.41555       -9.12350
H          6.50888       -1.43888      -11.06849
H          6.42091       -2.97572      -13.00532
H          5.13913       -4.56570      -14.39579
H          2.79547       -5.06207      -13.85457
H         -1.65913        0.51107      -12.32679
H         -2.43657       -0.66936      -11.28516
H         -1.70750       -1.17765      -12.79274
H          1.62776       -0.77831      -13.06162
H          2.33556        0.15919      -11.76314
H          1.03931        0.83919      -12.72876
H          1.03733       -2.82130       -6.75616
H          0.96414       -1.38344       -4.76274
H          0.46167        1.04873       -5.04001
H         -0.06582        2.91740       -6.57264
H         -0.47703        3.72508       -8.87115
H         -0.40509        2.15502      -10.75850
H         -3.74755       -4.39742      -10.08973
H         -2.43534       -4.92802      -11.12853
H         -3.11918       -3.32901      -11.32893
H         -3.60155       -2.56287       -8.04661
H         -2.74963       -1.19713       -8.74093
H         -2.14292       -1.95632       -7.28470
H          3.14910       -4.32331       -8.86818
H          3.80535       -6.24046       -7.47315
H          2.02839       -7.56213       -6.31583
H         -0.38320       -7.88788       -5.86647
H         -2.72253       -7.17705       -6.22209
H         -3.21944       -5.26372       -7.67983
