98
CSD_code = OJETON | q = 0 | S = 0 | Stoichiometry = C34H54N5PSi3Zr | MND = 5
Zr         5.18755        3.26839        5.22070
N          7.02351        3.66253        4.27315
N          4.67783        5.07815        6.22191
N          5.21988        1.30297        6.01050
N          6.79527        3.29822        7.05043
N          4.02395        2.98244        3.55124
Si         7.31488        4.97885        3.22957
Si         3.55154        6.31527        5.86581
Si         5.77296       -0.00732        5.06729
P          1.29013        2.29991        3.53423
C          8.13197        3.12356        5.03012
H          9.10540        3.38124        4.58763
H          8.06292        2.02368        5.06044
C          5.69263        5.49690        7.17293
H          5.29072        6.20495        7.91542
H          6.51673        6.02603        6.66031
C          5.51276        1.26725        7.42635
H          5.57599        0.24150        7.81783
H          4.72263        1.77800        7.99565
C          8.08708        3.67047        6.46882
H          8.92541        3.29425        7.07699
H          8.16376        4.75889        6.41083
C          6.26040        4.30911        7.95813
H          7.03029        4.65736        8.67018
H          5.44107        3.86047        8.53162
C          6.85127        1.98004        7.68512
H          7.07107        2.06049        8.76213
H          7.63924        1.38891        7.21445
C          8.24957        6.48284        4.00627
H          7.67505        6.94500        4.80526
H          8.44526        7.25048        3.26450
H          9.20982        6.18394        4.41857
C          8.40223        4.46361        1.72312
H          7.94274        3.65258        1.16631
H          9.38503        4.12555        2.03836
H          8.54960        5.29108        1.03704
C          5.63019        5.60046        2.60318
H          4.98084        4.76345        2.36129
H          5.74215        6.20488        1.70924
H          5.13817        6.20643        3.35624
C          4.36449        8.04596        5.62837
H          5.13925        8.03336        4.86695
H          4.82306        8.38619        6.55235
H          3.63351        8.79374        5.33784
C          2.30235        6.58373        7.31740
H          1.64541        5.72848        7.45241
H          1.67318        7.44909        7.13536
H          2.81493        6.75353        8.26061
C          2.50828        5.94867        4.30650
H          1.48826        5.68485        4.56767
H          2.92891        5.14231        3.71289
H          2.45409        6.82671        3.67225
C          6.06688        0.61136        3.27965
H          5.19805        0.44486        2.65210
H          6.89619        0.08563        2.81570
H          6.29008        1.68388        3.28027
C          7.44373       -0.83065        5.60546
H          8.31559       -0.21398        5.40217
H          7.59028       -1.77101        5.08305
H          7.44028       -1.05752        6.66817
C          4.57037       -1.51332        5.12613
H          3.53574       -1.20119        5.22066
H          4.79433       -2.14894        5.97780
H          4.65446       -2.12786        4.23575
C          3.05094        2.71869        2.83931
C          3.06129        2.74759        1.35809
C          4.27550        2.60199        0.68931
H          5.17641        2.46613        1.27083
C          4.31819        2.63659       -0.69116
H          5.26185        2.51553       -1.20297
C          3.15538        2.83008       -1.41989
H          3.18971        2.85524       -2.49929
C          1.94914        3.00004       -0.76073
H          1.04293        3.16604       -1.32485
C          1.90241        2.95753        0.62007
H          0.96057        3.10745        1.13248
C          1.16473        0.67178        2.70014
C          2.23355       -0.21951        2.70130
H          3.13424        0.03831        3.24085
C          2.13823       -1.41950        2.02374
H          2.97256       -2.10615        2.02894
C          0.97911       -1.74123        1.33479
H          0.90837       -2.67900        0.80307
C         -0.08753       -0.85822        1.32797
H         -0.99249       -1.10748        0.79260
C          0.00520        0.34361        2.00654
H         -0.82633        1.03522        2.00469
C          1.82304        1.80516        5.20406
C          1.51087        0.57492        5.78117
H          1.06965       -0.20485        5.17549
C          1.72214        0.36145        7.12975
H          1.46626       -0.59301        7.56691
C          2.22010        1.37586        7.93403
H          2.33528        1.21090        8.99617
C          2.54487        2.60227        7.37297
H          2.88006        3.42460        7.99732
C          2.36521        2.81514        6.01260
H          2.48540        3.81292        5.60666
