43
CSD_code = OLUBED | q = 0 | S = 0 | Stoichiometry = C14H22O3Si3W | MND = 9
W          2.31473       11.45854        2.18860
C          3.84184       12.63938        1.81256
O          4.75625       13.30021        1.56354
C          4.01353       10.53611        2.54357
O          5.03686       10.06307        2.81501
C          2.56757       11.67310        0.24465
O          2.73513       11.88757       -0.88008
C          0.95066       10.87425        3.97414
C          1.60018       12.09181        4.30060
H          2.21567       12.26235        5.17490
C          1.14784       13.09971        3.41394
H          1.38625       14.15368        3.47899
C          0.22875       12.51893        2.51410
H         -0.38856       13.05763        1.80428
C          0.10728       11.14912        2.85555
H         -0.65209       10.47628        2.47492
Si         1.99560        9.12148        1.09328
C          3.46894        8.38361        0.10100
H          3.22454        7.39987       -0.28851
H          4.35104        8.28210        0.72427
H          3.73696        9.01411       -0.74227
C          0.54374        9.10361       -0.17831
H          0.78971        9.67581       -1.06844
H         -0.37402        9.51574        0.22968
H          0.32982        8.08675       -0.49371
Si         1.50985        7.72333        2.99001
C          2.98979        6.57002        3.36067
H          2.80822        5.95000        4.23379
H          3.89116        7.14511        3.54644
H          3.19167        5.90663        2.52538
C         -0.00055        6.58824        2.66531
H          0.18657        5.91757        1.83252
H         -0.88980        7.16265        2.42647
H         -0.23082        5.97527        3.53140
Si         1.10490        9.18468        4.81453
C          2.56098        9.31748        6.04524
H          2.36497       10.03079        6.84128
H          3.46955        9.62806        5.53601
H          2.75970        8.35810        6.51117
C         -0.51122        8.90355        5.80289
H         -0.48054        7.94745        6.31513
H         -1.37667        8.89465        5.14744
H         -0.67458        9.67358        6.55245
