73
CSD_code = PACREQ | q = 0 | S = 0 | Stoichiometry = C25H37ClN6Si3Ti | MND = 7
C          2.08400        0.52559        8.84350
C          1.81582       -0.53604        7.95139
C          1.56777       -1.79421        8.44732
C          1.59393       -1.98346        9.83942
C          1.86224       -0.90743       10.65617
C          0.68132        3.60425       10.98030
C         -0.40906        4.39583       11.39412
C         -1.27293        3.91353       12.34996
C         -1.03599        2.63433       12.87793
C          0.04121        1.90957       12.42079
C          5.25673        2.25039        9.85261
C          6.64795        2.25007        9.60789
C          7.38853        1.13035        9.90165
C          6.72842        0.01245       10.43982
C          5.37207        0.07879       10.65966
C          2.87809        4.42919        7.60779
C         -0.30306        4.33112        7.92085
C          1.23632        6.77477        8.99429
C          4.38301        1.85967        6.38907
C          1.43340        2.34708        5.69335
C          4.41937        6.10268        9.96643
C          5.95427        4.94510        7.54683
C          1.27638       -2.95121        7.54329
C         -2.43526        4.72044       12.83770
C          8.86665        1.08432        9.67009
N          1.63795        3.94100       10.10850
N          0.86969        2.36335       11.48508
N          2.34851        1.79275        8.55209
N          2.09446        0.31272       10.18568
N          4.39457        3.23612        9.64569
N          4.64477        1.15450       10.37103
Si         1.37122        4.88255        8.68717
Si         2.74361        2.58924        7.07726
Si         4.44398        4.67087        8.69711
Cl         3.52718        2.98965       12.45939
Ti         2.79374        2.36711       10.40487
H          1.81495       -0.33281        6.89181
H          1.40688       -2.95916       10.25922
H          1.89530       -1.01808       11.73524
H         -0.52535        5.38085       10.97000
H         -1.68968        2.22817       13.63353
H          0.25302        0.91842       12.80620
H          7.10526        3.14147        9.21141
H          7.28123       -0.88074       10.68398
H          4.83064       -0.76346       11.07847
H          2.91121        5.07389        6.73317
H         -1.14272        4.79513        8.42959
H         -0.41626        3.25472        8.01804
H         -0.37916        4.58497        6.86973
H          0.21372        7.11697        8.87228
H          1.84565        7.32752        8.28854
H          1.55899        7.04825        9.99270
H          5.12851        1.78913        7.17626
H          4.79146        2.46399        5.58631
H          4.22958        0.85824        5.99612
H          0.47496        2.03044        6.08862
H          1.75819        1.59888        4.97791
H          1.27419        3.26772        5.14449
H          3.71999        5.85590       10.76279
H          4.12909        7.05084        9.52942
H          5.39723        6.23633       10.42180
H          6.21508        4.05915        6.98060
H          6.82817        5.25508        8.10974
H          5.73573        5.73496        6.83667
H          1.99681       -3.75055        7.71078
H          1.31945       -2.65127        6.49979
H          0.28477       -3.35009        7.75335
H         -3.36161        4.16109       12.71561
H         -2.51409        5.65846       12.29488
H         -2.31693        4.93862       13.89821
H          9.12499        0.23105        9.04471
H          9.38791        0.96985       10.61961
H          9.21407        1.99433        9.18856
