84
CSD_code = PODTIN | q = 0 | S = 0 | Stoichiometry = C30H45ClN3PSi3Zr | MND = 5
Zr         6.29087        3.85825        6.40110
Cl         7.44156        4.56709        4.46217
P          6.20706        3.09705        8.91021
Si         8.24263        1.32603        5.49111
Si         6.83178        6.96852        6.98182
Si         3.24060        3.42651        5.57477
N          6.86027        1.83102        6.39053
N          7.21907        5.37858        7.51567
N          4.21436        3.99109        6.86824
C          6.71570        1.35034        9.21161
H          7.78070        1.26325        8.96759
H          6.54199        1.02905       10.24264
C          7.18808        4.12123       10.08709
H          6.62352        5.04735       10.24913
H          7.36134        3.61907       11.04325
C          4.50766        3.11211        9.61509
H          3.95554        2.29940        9.12829
H          4.51301        2.95524       10.69814
C          5.88771        0.56245        8.23538
C          5.03183       -0.43433        8.67425
H          4.96227       -0.63874        9.73433
C          4.29011       -1.19207        7.78350
H          3.63515       -1.96993        8.14474
C          4.41735       -0.95177        6.42623
H          3.86477       -1.55026        5.71660
C          5.25375        0.04955        5.97240
H          5.36634        0.21583        4.91076
C          5.98815        0.85178        6.85486
C          9.64874        2.49640        6.04139
H          9.54056        3.47748        5.58940
H         10.61700        2.10928        5.74240
H          9.66057        2.62112        7.12358
C          8.72157       -0.45768        6.00329
H          8.97071       -0.51542        7.05767
H          9.57827       -0.81176        5.44172
H          7.90152       -1.14520        5.82641
C          8.05395        1.29145        3.57610
H          7.35420        0.52579        3.25014
H          9.00941        1.07263        3.10968
H          7.71577        2.24679        3.18464
C          8.47708        4.42269        9.37273
C          9.69859        4.10274        9.94263
H          9.71663        3.61615       10.90887
C         10.89186        4.41518        9.31290
H         11.83298        4.16536        9.77816
C         10.86028        5.05720        8.08643
H         11.78264        5.31216        7.58577
C          9.65249        5.36730        7.49347
H          9.62861        5.85427        6.53012
C          8.43130        5.05373        8.10588
C          8.20480        8.10141        6.25723
H          9.01687        8.23893        6.96416
H          7.80291        9.08369        6.02771
H          8.62196        7.69690        5.33928
C          6.08612        7.92667        8.46944
H          5.26942        7.37976        8.92946
H          5.70540        8.89402        8.16231
H          6.84060        8.09984        9.23014
C          5.51957        6.77388        5.59035
H          5.96666        6.92149        4.60994
H          4.72877        7.50936        5.70239
H          5.07621        5.77007        5.61520
C          3.89657        4.43458        9.25511
C          3.45297        5.28436       10.25630
H          3.59060        4.99225       11.28894
C          2.81653        6.47856        9.96691
H          2.47810        7.12395       10.76274
C          2.60513        6.81684        8.64177
H          2.08694        7.73105        8.39167
C          3.05764        5.99137        7.63250
H          2.87565        6.26210        6.60545
C          3.74359        4.79798        7.89745
C          4.55218        2.99375        4.23473
H          4.83609        3.86914        3.64376
H          4.16058        2.25755        3.53702
H          5.45598        2.56994        4.69461
C          2.21000        1.89907        6.10830
H          2.82612        1.14412        6.58686
H          1.71632        1.43581        5.26081
H          1.43853        2.19222        6.81386
C          1.98675        4.60318        4.70849
H          1.21280        4.92366        5.39856
H          1.49308        4.09208        3.88739
H          2.45782        5.49299        4.29855
