84
CSD_code = PODTOT | q = 0 | S = 0 | Stoichiometry = C30H45ClHfN3PSi3 | MND = 5
Hf         6.29298        3.86659        6.34919
Cl         7.11532        4.53091        4.26540
P          6.14154        3.14793        8.87151
Si         8.24761        1.35735        5.38631
Si         6.95316        7.00981        7.02257
Si         3.15408        3.36144        5.60716
N          6.88653        1.84785        6.33388
N          7.32496        5.36723        7.38542
N          4.22933        4.07262        6.74413
C          6.67214        1.41677        9.18769
H          7.74527        1.35147        8.97849
H          6.47538        1.09775       10.21498
C          7.09283        4.20061       10.03944
H          6.54244        5.14234       10.14260
H          7.21008        3.73361       11.02137
C          4.42436        3.17678        9.52071
H          3.87780        2.36681        9.02559
H          4.39590        3.02751       10.60421
C          5.89277        0.60048        8.19370
C          5.04242       -0.40145        8.63391
H          4.94048       -0.57224        9.69728
C          4.34703       -1.20322        7.74562
H          3.69366       -1.98079        8.11028
C          4.52149       -1.00601        6.38684
H          4.00983       -1.63914        5.67688
C          5.35297       -0.00207        5.93239
H          5.49988        0.13107        4.87200
C          6.03302        0.85104        6.81026
C          9.58112        2.66321        5.77733
H          9.17336        3.66798        5.69106
H         10.41043        2.58693        5.08357
H          9.98228        2.55039        6.78050
C          8.85707       -0.35218        5.98668
H          9.13975       -0.33235        7.03393
H          9.71923       -0.68008        5.41781
H          8.08049       -1.10085        5.87406
C          7.99036        1.20913        3.48785
H          7.31492        0.39847        3.22773
H          8.93809        1.00458        2.99933
H          7.59667        2.12555        3.05845
C          8.42283        4.44897        9.38122
C          9.59625        4.11569       10.03979
H          9.53546        3.65382       11.01628
C         10.83705        4.38210        9.48813
H         11.73727        4.11721       10.02128
C         10.90447        5.00661        8.25477
H         11.86344        5.24021        7.81645
C          9.74626        5.33061        7.57765
H          9.80091        5.81542        6.61536
C          8.47917        5.04038        8.09887
C          8.37926        8.13048        6.40214
H          9.17706        8.19388        7.13520
H          8.01590        9.13827        6.22775
H          8.80680        7.77255        5.47019
C          6.24986        7.86231        8.59077
H          5.36448        7.35769        8.96522
H          5.97809        8.89152        8.38382
H          6.98923        7.87522        9.38593
C          5.62851        6.97137        5.64317
H          6.07067        7.15691        4.66900
H          4.88290        7.74080        5.81297
H          5.12202        6.00119        5.60256
C          3.84199        4.50659        9.13518
C          3.37607        5.36016       10.12406
H          3.47314        5.06192       11.15950
C          2.77100        6.56580        9.81774
H          2.41614        7.21354       10.60455
C          2.61097        6.91289        8.48785
H          2.11618        7.83585        8.22354
C          3.08352        6.08169        7.49271
H          2.94120        6.35436        6.46030
C          3.74292        4.87995        7.77764
C          4.33217        2.79224        4.21199
H          4.54350        3.59446        3.50709
H          3.88953        1.97962        3.64435
H          5.28136        2.43470        4.62253
C          2.20827        1.88478        6.38153
H          2.88275        1.13037        6.77532
H          1.56772        1.40275        5.65076
H          1.57427        2.22264        7.19620
C          1.81904        4.48174        4.80852
H          1.13192        4.86262        5.55712
H          1.23476        3.91697        4.08914
H          2.24607        5.33164        4.28400
