80
CSD_code = RIKCOF | q = 0 | S = 0 | Stoichiometry = C28H47OScSi3 | MND = 8
Sc         9.71450       14.64217        3.76755
O          9.39541       12.53536        2.78959
Si        13.26159       14.17930        3.34760
Si         9.01392       16.31538        0.63543
Si         8.80620       15.52858        7.07195
C         11.88440       15.17100        4.17113
H         12.02211       16.22542        3.87433
H         12.07890       15.16249        5.25643
C         12.75308       13.83081        1.52359
H         11.66606       13.81374        1.41608
H         13.14568       12.88475        1.16177
H         13.12825       14.60442        0.86136
C         14.98422       15.01896        3.27155
H         14.93545       15.96440        2.73919
H         15.71448       14.39532        2.76397
H         15.36620       15.22567        4.26678
C         13.50283       12.50866        4.25980
H         12.56221       12.11808        4.63854
H         14.16782       12.63026        5.10873
H         13.94105       11.75400        3.61375
C          8.39433       15.80487        2.34375
H          7.44986       15.24730        2.20665
H          8.09939       16.73685        2.85894
C          7.87612       17.52438       -0.32795
H          6.89330       17.09392       -0.49652
H          8.29042       17.78230       -1.29821
H          7.73549       18.44957        0.22281
C          9.23036       14.78009       -0.49703
H          9.85974       14.02596       -0.03163
H          9.69460       15.05268       -1.43927
H          8.27285       14.32265       -0.72875
C         10.71877       17.17046        0.82683
H         10.62291       18.10685        1.36830
H         11.16436       17.39745       -0.13659
H         11.41482       16.54065        1.37763
C         10.54222       12.46759        6.55802
H         11.27113       13.23100        6.79434
C         10.85452       11.13493        6.73715
H         11.82808       10.86131        7.11909
C          9.93759       10.12731        6.43376
H         10.21304        9.09346        6.58558
C          8.68557       10.44477        5.94594
H          7.97240        9.66409        5.71714
C          5.93304       11.85973        4.87155
H          5.78200       10.78875        4.86603
C          4.92016       12.71007        4.47702
H          3.97258       12.30646        4.15074
C          5.10254       14.09358        4.50887
H          4.28812       14.73815        4.20914
C          6.29596       14.64867        4.92263
H          6.41539       15.72483        4.95366
C          8.69232       14.13005        5.79125
C          9.27946       12.81783        6.06851
C          8.34943       11.78156        5.76455
C          7.14412       12.39991        5.29096
C          7.34749       13.80916        5.30690
C          7.29147       15.47566        8.24127
H          6.36154       15.46963        7.68150
H          7.27138       16.33152        8.90894
H          7.30526       14.57897        8.85356
C          8.83244       17.22778        6.17570
H          9.54231       17.23159        5.34464
H          9.12029       18.02029        6.85878
H          7.85680       17.48910        5.77837
C         10.36601       15.45905        8.17403
H         10.43471       14.52066        8.71328
H         10.33084       16.25622        8.90978
H         11.27836       15.58818        7.60031
C         10.25192       11.37371        2.85248
H         10.31126       11.04613        3.89601
H         11.24771       11.65669        2.50520
C          9.60132       10.29756        1.98891
H          9.83746        9.29807        2.34372
H          9.92012       10.39118        0.95024
C          8.12387       10.64940        2.12405
H          7.50940       10.24903        1.32194
H          7.73901       10.30283        3.08245
C          8.17864       12.17077        2.10474
H          8.23019       12.54845        1.07599
H          7.33497       12.63433        2.62216
