116
CSD_code = SEPNEI | q = 0 | S = 0 | Stoichiometry = C42H65BFeN2P2Si3 | MND = 4
Fe         1.90593        1.44857        3.85851
P          2.31828       -0.83092        3.45619
P          0.36898        1.16064        5.45782
Si         1.83760        5.29440        2.71499
Si         1.34767        3.08465        0.85391
Si         4.59283        2.99240        3.19980
N          2.03836        3.56856        2.39937
C          4.27482       -0.76106        5.46304
C          1.31194       -2.30379        8.31854
H          1.55305       -3.13671        8.96480
C          0.23773        2.65867        6.60246
H         -0.36526        3.39369        6.05698
N          2.87090        2.73657        3.16420
C          0.71400       -0.17841        6.64528
C          3.55022       -0.11724        1.10226
H          4.54923       -0.36924        1.45033
H          3.30523        0.87140        1.48878
H          3.56073       -0.08026        0.01426
C          2.31943       -1.58280        7.70740
H          3.34876       -1.85862        7.89062
C          0.26297       -2.79574        3.02443
H          0.69337       -3.49030        2.31047
H         -0.16442       -1.96208        2.47351
H         -0.54802       -3.31159        3.53696
C          2.52661       -1.13595        1.59689
H          1.54924       -0.82919        1.20949
C          5.45421       -1.22437        6.04508
H          5.70648       -0.88849        7.04102
C          2.81489       -2.53513        1.02452
H          2.09402       -2.77471        0.24367
H          2.76348       -3.31889        1.77230
H          3.80279       -2.56668        0.56839
C          6.31921       -2.08383        5.39533
H          7.22715       -2.41470        5.88069
C          3.95621       -1.24850        4.18687
C          2.06479       -0.50209        6.85968
C          3.74383        1.14937        8.73280
H          2.82654        0.65851        9.03269
C          1.29914       -2.32494        4.04652
H          0.75472       -1.90553        4.90066
C          1.68064        5.81131        4.53085
H          0.86904        5.30389        5.03861
H          1.48959        6.87830        4.58539
H          2.59888        5.61702        5.07361
C          4.83809       -2.09829        3.52284
H          4.62298       -2.45418        2.53231
C         -0.30614       -0.89390        7.27163
H         -1.34102       -0.62610        7.11184
C          6.01933       -2.50649        4.11350
H          6.69305       -3.15974        3.57608
C          4.47140        1.83707        9.68953
H          4.11537        1.87873       10.71082
C         -1.45618        1.05983        5.00021
H         -2.08022        1.05516        5.89874
C          3.20905        6.31066        1.86332
H          4.09221        6.38611        2.48986
H          2.86576        7.32049        1.65998
H          3.50838        5.86605        0.91917
C          6.08009        5.38273        3.72838
H          6.37979        5.30817        2.69184
C         -0.01200       -1.95289        8.10796
H         -0.80916       -2.50151        8.59022
C          5.65221        2.47035        9.34401
H          6.22284        3.00900       10.08825
C          6.56908        6.41786        4.50504
H          7.23609        7.15024        4.07202
C         -0.43674        2.35338        7.93607
H          0.14474        1.62580        8.49741
H         -1.44417        1.96437        7.80699
H         -0.50244        3.26562        8.52824
C          5.36499        5.56202        6.38805
H          5.09048        5.61477        7.43171
C          6.20818        6.51286        5.83896
H          6.59017        7.31964        6.44781
C          2.10684       -3.50229        4.58510
H          1.42208       -4.27426        4.93570
H          2.72360       -3.19003        5.42375
H          2.75447       -3.94070        3.82986
C          5.35930        1.71079        7.08900
H          5.72369        1.66419        6.07127
C         -1.72942       -0.20322        4.19544
H         -2.78362       -0.26805        3.92696
H         -1.46593       -1.09419        4.75949
H         -1.14132       -0.18605        3.28051
C         -1.78605        2.29664        4.15731
H         -0.92216        2.58251        3.55218
H         -2.06694        3.14445        4.77721
H         -2.62138        2.08922        3.49014
C          2.64749        2.83118       -0.52470
H          2.73511        3.72125       -1.14025
H          2.37443        2.01045       -1.17938
H          3.62907        2.61645       -0.11703
C          1.61782        3.25538        6.83174
H          1.54185        4.22297        7.32721
H          2.12296        3.38229        5.87503
H          2.22005        2.59798        7.45211
C          0.25231        1.55545        1.14182
H          0.55454        1.05167        2.06932
H          0.32863        0.84735        0.32415
H         -0.79424        1.82552        1.23588
C          4.16242        1.06525        7.40502
C          0.30655        4.64288        0.48976
H          0.81155        5.24074       -0.26772
H         -0.67671        4.40627        0.08482
C          0.18846        5.46683        1.77251
H         -0.63233        5.07883        2.37589
H         -0.05753        6.50279        1.54556
C          5.21763        4.42642        4.25819
B          3.33766        0.28968        6.25050
C          6.09570        2.40132        8.03391
H          7.01742        2.89109        7.74777
C          4.87687        4.53253        5.60280
H          4.23988        3.78478        6.04710
H          5.12024        1.70161        3.64215
H          3.00758        1.16261        5.39426
H          5.00820        3.28814        1.81271
