32
CSD_code = SICFEA | q = 0 | S = 0 | Stoichiometry = C10H11Cl5FeO2Si3 | MND = 8
Fe         8.00343       10.38148        2.12402
Si         7.65879        8.38890        3.06436
Si         6.13559        5.64794        2.27097
Si         6.22268        6.57317        5.30687
C          7.14713        7.14157        1.67969
C          6.59664        5.18410        4.05514
C          6.34278        8.27077        4.46601
Cl         9.39340        7.64869        3.88771
Cl         6.48543        4.05750        1.05845
Cl         4.16923        6.12272        2.17902
Cl         7.54210        6.46812        6.83612
Cl         4.35079        6.30441        6.03453
C          7.88407       11.11587        3.70039
C          6.27789       10.58912        1.97832
O          7.76238       11.63679        4.71355
O          5.14934       10.77852        1.91352
C         10.15934       10.53659        1.71050
C          9.67135        9.45431        0.94555
C          8.68165        9.95431        0.06944
C          8.61754       11.36365        0.23800
C          9.52936       11.72313        1.24788
H          8.04851        6.79261        1.18247
H          6.57586        7.68361        0.92896
H          6.07570        4.27368        4.35083
H          7.65940        4.95067        4.09116
H          5.37632        8.52558        4.03725
H          6.55189        9.03412        5.21276
H         10.98637       10.49219        2.39883
H         10.04655        8.44644        0.97609
H          8.19709        9.39764       -0.71558
H          8.04267       12.04315       -0.36923
H          9.77813       12.72687        1.55061
