75
CSD_code = UHIQAD | q = 0 | S = 0 | Stoichiometry = C24H44N2OSi3Zr | MND = 12
Zr         5.34234        3.19555       10.83589
N          3.53565        2.24204       10.71428
C          2.75453        1.60750       11.75726
H          1.89573        2.23573       12.06770
H          3.36616        1.39819       12.63459
H          2.32455        0.65038       11.40565
C          2.67831        2.38562        9.54845
H          2.42008        1.40065        9.11656
H          3.16618        2.98756        8.77772
H          1.71669        2.86785        9.80870
N          4.76447        5.12484       10.47562
C          3.43429        5.53204       10.06817
H          3.20033        6.54097       10.45620
H          2.67961        4.84400       10.45357
H          3.33483        5.58715        8.96551
C          5.69125        6.16467       10.07291
H          5.68053        6.32355        8.97849
H          6.71151        5.91994       10.37897
H          5.41787        7.13559       10.52982
Si         6.83146        0.18051       12.44447
C          8.39735       -0.44969       13.33147
H          8.74236       -1.38105       12.89492
H          8.19381       -0.63023       14.38153
H          9.20990        0.26533       13.27403
C          5.34397       -0.88042       12.99784
H          4.46891       -0.69922       12.38270
H          5.07757       -0.68868       14.03194
H          5.58692       -1.93527       12.91709
O          7.07796       -0.07047       10.84261
Si         6.47704        0.23238        9.34337
C          7.74345       -0.58514        8.16922
H          8.70371       -0.08250        8.21513
H          7.39976       -0.53986        7.14150
H          7.90272       -1.62818        8.42266
C          4.78906       -0.64725        9.19638
H          4.86960       -1.68831        9.49261
H          4.41569       -0.62420        8.17828
H          4.05231       -0.17187        9.83675
Si         8.59561        3.01610       10.73446
C          9.64889        4.62135       10.74755
H         10.24305        4.68695       11.65262
H          9.04564        5.52054       10.68362
H         10.33379        4.62861        9.90709
C          9.86076        1.58628       10.69620
H          9.37332        0.62068       10.69915
H         10.52892        1.63320       11.54979
H         10.47104        1.65306        9.80107
C          6.53368        2.01072       12.64551
C          7.37529        3.07646       12.17905
C          6.81103        4.28787       12.65372
H          7.27325        5.26015       12.55121
C          5.66795        4.00183       13.42544
C          5.50687        2.60249       13.42021
H          4.82488        2.05235       14.05555
C          4.76563        4.96072       14.17061
C          3.31219        4.64632       13.78028
H          2.99628        3.69283       14.19886
H          3.23496        4.59787       12.68961
H          2.64071        5.41762       14.15484
C          4.95187        4.78237       15.68444
H          4.74002        3.75804       15.98089
H          4.28474        5.44595       16.23129
H          5.97687        5.01161       15.96654
C          5.07277        6.41023       13.78949
H          4.39236        7.08662       14.30409
H          4.95188        6.53882       12.71672
H          6.08899        6.67774       14.06896
C          6.32904        2.07266        9.04550
C          7.37181        3.06367        9.29901
C          7.17083        4.11314        8.39894
H          7.80484        4.98066        8.30301
C          6.06186        3.83027        7.59126
H          5.69321        4.45035        6.78920
C          5.55516        2.59473        7.96599
H          4.78348        2.04687        7.44375
