63
CSD_code = VOCXEQ | q = 0 | S = 0 | Stoichiometry = C15H39ClCrN4Si3 | MND = 5
Cr         5.59651        3.91215        0.84460
Cl         5.17983        4.00229        2.97928
N          3.86512        4.28964        0.21884
Si         2.41847        3.87003        1.09792
C          2.66308        2.11225        1.81296
H          3.61948        1.70224        1.49435
H          1.87491        1.42900        1.51116
H          2.67493        2.14839        2.89620
C          1.96919        5.15473        2.43950
H          1.81719        6.14739        2.02516
H          2.75294        5.21536        3.18646
H          1.05154        4.86268        2.94025
C          0.93732        3.80268       -0.11688
H          1.06109        3.04081       -0.88006
H          0.77884        4.75196       -0.61704
H          0.03125        3.56800        0.42988
C          3.73751        4.72126       -1.15051
H          3.24621        5.70323       -1.20872
H          3.11239        4.02385       -1.72613
C          5.13229        4.82090       -1.77737
H          5.09743        4.68294       -2.86846
H          5.54803        5.80565       -1.55798
N          6.87552        5.28672        0.76948
Si         6.88761        6.64755        1.86018
C          7.86389        8.08993        1.05988
H          8.88985        7.81396        0.84141
H          7.89185        8.93105        1.74309
H          7.40871        8.43727        0.13768
C          7.74870        6.25449        3.52054
H          8.77897        5.93741        3.38555
H          7.21838        5.46892        4.04751
H          7.75556        7.13638        4.15325
C          5.07895        7.22734        2.08796
H          4.41337        6.65972        1.44066
H          4.95279        8.28457        1.87408
H          4.75780        7.05349        3.10843
C          7.73554        5.32392       -0.38663
H          8.79302        5.26317       -0.09148
H          7.61718        6.26973       -0.93423
C          7.40151        4.13942       -1.29994
H          7.65169        4.35380       -2.34979
H          7.97080        3.26855       -0.97094
N          6.20028        2.13425        0.76898
Si         6.98867        1.33288        2.10243
C          8.00514       -0.15014        1.43800
H          8.79307        0.15826        0.75809
H          7.38128       -0.87020        0.91960
H          8.47698       -0.66572        2.26658
C          8.21688        2.57535        2.88252
H          8.22343        3.50707        2.32013
H          9.23010        2.18660        2.92176
H          7.91303        2.81443        3.89524
C          5.74985        0.62348        3.37304
H          5.06671       -0.09338        2.92624
H          5.16295        1.41936        3.81807
H          6.28471        0.11642        4.16985
C          6.22044        1.49888       -0.52467
H          5.60518        0.58754       -0.52427
H          7.23988        1.18826       -0.79437
C          5.67113        2.47378       -1.57184
H          6.07654        2.26405       -2.57303
H          4.58427        2.38199       -1.60359
N          5.98704        3.82864       -1.13834
