99
CSD_code = XUVDUO | q = 0 | S = 0 | Stoichiometry = C31H56FeN2O4P2Si3 | MND = 5
Fe         4.23773        6.16050        2.66526
C          4.72277        6.10680        0.97053
O          4.95250        6.25496       -0.14685
C          3.22581        7.14289        3.73317
O          2.53546        7.86067        4.30638
C          5.40158        7.48161        2.68612
O          6.08534        8.39964        2.57591
C          2.73254        5.46633        2.06732
O          1.73231        5.14105        1.60572
P          5.25871        4.47418        3.79107
N          5.78459        4.58854        5.39229
Si         4.94293        5.62494        6.56703
C          5.51189        5.22203        8.33280
H          5.16131        4.25480        8.67062
H          5.12118        5.97082        9.01394
H          6.59182        5.23275        8.41056
C          5.36661        7.46107        6.26333
H          5.48370        7.68933        5.20913
H          6.28781        7.73954        6.76712
H          4.57992        8.10047        6.65118
C          3.07747        5.25746        6.40548
H          2.78413        4.39998        7.00373
H          2.79909        5.05051        5.37477
H          2.48744        6.10413        6.74055
N          6.90571        3.81545        5.81577
Si         8.48643        4.55803        5.56650
C          9.26930        5.09647        7.22149
H          8.72588        5.91207        7.68837
H         10.28441        5.44054        7.05079
H          9.31763        4.27978        7.93167
C          8.29653        6.12297        4.49971
H          7.47832        6.02668        3.79026
H          9.19895        6.32264        3.93094
H          8.09384        6.99658        5.10959
C          9.64952        3.31453        4.70877
H          9.14285        2.74906        3.93419
H         10.05696        2.60822        5.42389
H         10.48864        3.82959        4.25151
Si         6.63896        2.23060        6.55320
C          7.42516        2.15151        8.29135
H          8.50350        2.06000        8.21896
H          7.06454        1.27017        8.81209
H          7.20572        3.01072        8.91234
C          4.76243        1.92656        6.66829
H          4.24392        2.38490        5.83375
H          4.33947        2.33290        7.58023
H          4.54277        0.86414        6.65175
C          7.44613        0.76511        5.62792
H          7.19215        0.72608        4.57447
H          7.12183       -0.16827        6.07949
H          8.52682        0.80041        5.70623
P          6.06999        2.72314        3.14337
C          5.30952        2.70806        1.46484
C          6.03671        3.16750        0.34785
C          5.34291        3.43601       -0.82516
H          5.87740        3.82269       -1.67063
C          3.97364        3.26523       -0.93459
C          3.33006        2.63303        0.11743
H          2.28436        2.40705        0.00799
C          3.97349        2.28423        1.29639
C          7.56355        3.30800        0.34053
C          8.19204        1.99465        0.82753
H          7.88104        1.75207        1.84138
H          9.27725        2.07343        0.81547
H          7.89598        1.17615        0.17405
C          8.03345        4.47789        1.21268
H          7.87070        4.27445        2.26831
H          7.50004        5.38886        0.94511
H          9.09827        4.64736        1.06452
C          8.12327        3.55689       -1.06923
H          7.80514        2.78553       -1.76688
H          9.21071        3.53538       -1.02334
H          7.83148        4.53309       -1.44899
C          3.18390        3.66951       -2.16891
C          4.04446        4.39262       -3.20859
H          4.50839        5.27675       -2.77823
H          3.41741        4.71088       -4.03930
H          4.81744        3.73822       -3.60581
C          2.59219        2.41172       -2.82116
H          2.05220        2.67860       -3.72729
H          1.90294        1.90484       -2.15125
H          3.38615        1.71541       -3.08445
C          2.05372        4.61931       -1.74975
H          2.46905        5.52100       -1.30390
H          1.39035        4.15804       -1.02365
H          1.46281        4.90572       -2.61747
C          3.20609        1.38743        2.27867
C          2.45424        2.22035        3.32291
H          3.14110        2.85253        3.88598
H          1.93643        1.56504        4.02088
H          1.71923        2.86089        2.84150
C          2.16339        0.53563        1.52882
H          1.31425        1.12572        1.19488
H          1.77280       -0.22818        2.19819
H          2.61218        0.04102        0.67036
C          4.13841        0.38943        2.98055
H          4.70530        0.85647        3.78258
H          4.83424       -0.04718        2.26652
H          3.55349       -0.41378        3.42468
