138
CSD_code = YIGNUA | q = 0 | S = 0 | Stoichiometry = C50H80N3OSi3Y | MND = 6
Y          4.96633       10.98125        6.15165
C          2.04273        7.51396        5.59380
H          2.89057        7.05975        6.09530
H          1.69848        6.81826        4.83586
H          1.24935        7.62216        6.32924
C          1.25684        9.37693        3.38471
H          1.34458       10.31872        2.85294
H          0.22284        9.25803        3.68646
H          1.47316        8.58900        2.66775
C          1.84525       10.52620        7.13706
C          2.14639       10.03574        8.42870
C          3.49038        9.42376        8.76780
H          4.04699        9.23275        7.82844
C          4.30825       10.39868        9.62964
H          5.27339        9.96049        9.88279
H          3.77933       10.61268       10.55715
H          4.46823       11.35050        9.10993
C          3.34528        8.08449        9.49481
H          4.32175        7.62350        9.61866
H          2.70725        7.40919        8.92968
H          2.90993        8.21784       10.48165
C          1.20865       10.12664        9.44768
H          1.45543        9.75924       10.43220
C         -0.04164       10.66862        9.23283
H         -0.76632       10.71402       10.03153
C         -0.33832       11.16567        7.98079
H         -1.30725       11.61032        7.80996
C          0.57601       11.11359        6.94014
C          0.17100       11.73517        5.62436
H          0.94345       11.50514        4.89197
C         -1.16632       11.18024        5.12457
H         -1.31982       11.44263        4.07933
H         -1.99669       11.59021        5.69484
H         -1.19467       10.09749        5.21962
C          0.08180       13.25749        5.76217
H         -0.20380       13.71179        4.81505
H          1.04253       13.66286        6.06546
H         -0.65900       13.53435        6.50953
C          8.58186        7.27590        6.61758
H          9.34978        7.69875        7.25720
H          8.89436        7.41824        5.58751
H          8.55717        6.20879        6.81459
C          5.68392        6.64241        7.29332
H          4.64609        6.95445        7.25773
H          5.87348        6.25291        8.28949
H          5.80039        5.81545        6.60252
C          7.09036        9.15839        4.48980
C          6.73472        8.19085        3.52444
C          5.68188        7.13460        3.76924
H          5.15667        7.37994        4.69417
C          4.65571        7.05502        2.63399
H          3.80127        6.46258        2.95260
H          5.08232        6.58272        1.75211
H          4.30118        8.04312        2.35404
C          6.35691        5.76783        3.92767
H          5.61847        5.00978        4.18287
H          7.11513        5.79942        4.70422
H          6.84015        5.47271        2.99833
C          7.40965        8.14135        2.31250
H          7.12318        7.40155        1.58077
C          8.45705        8.99118        2.02568
H          8.97711        8.92718        1.08150
C          8.84803        9.90293        2.98449
H          9.69721       10.54073        2.78669
C          8.18678       10.00032        4.20025
C          8.70783       10.99415        5.21267
H          8.02281       10.98993        6.07174
C         10.09669       10.57566        5.70284
H         10.46497       11.27940        6.44720
H         10.80486       10.55410        4.87733
H         10.05996        9.58628        6.14794
C          8.76522       12.40898        4.63172
H          9.17274       13.09887        5.36695
H          7.76957       12.74216        4.35263
H          9.40365       12.44774        3.75194
C          6.61499       15.36486        5.33216
H          7.57758       14.87016        5.38388
H          6.57682       16.08192        6.14590
H          6.58024       15.92843        4.40426
C          3.64296       15.25912        4.94015
H          2.69569       14.73068        4.95467
H          3.79228       15.61734        3.92523
H          3.54548       16.13083        5.57633
C          5.28616       13.00803        3.01182
H          6.03175       13.77857        2.76720
C          5.70056       11.68086        2.36819
H          6.70450       11.39617        2.67341
H          5.67302       11.76858        1.28443
H          5.00362       10.89844        2.67659
C          3.95190       13.41127        2.43348
C          3.88286       14.29813        1.36770
H          4.79073       14.73844        0.97937
C          2.66078       14.62184        0.80532
H          2.61516       15.31642       -0.02047
C          1.49912       14.05599        1.30202
H          0.54491       14.30713        0.86314
C          1.56400       13.16862        2.36305
H          0.65788       12.72571        2.74739
C          2.78499       12.84652        2.92794
H          2.84924       12.16277        3.76721
C          5.25026       13.72550        8.18864
C          4.17797       14.31022        8.88769
C          2.79356       14.39445        8.29708
H          2.82578       13.92358        7.31106
C          2.35641       15.85428        8.14955
H          1.45514       15.92209        7.54425
H          3.14020       16.44479        7.68184
H          2.14420       16.28920        9.12354
C          1.78735       13.63650        9.16359
H          0.80009       13.66913        8.71109
H          1.72118       14.07296       10.15731
H          2.08062       12.59622        9.26321
C          4.37481       14.81702       10.16416
H          3.54530       15.27034       10.68551
C          5.60454       14.75504       10.78527
H          5.73865       15.14877       11.78181
C          6.66139       14.18281       10.10742
H          7.62694       14.12932       10.58753
C          6.50860       13.68805        8.82193
C          7.70467       13.07203        8.13729
H          7.43501       12.90689        7.08865
C          8.01712       11.72232        8.79015
H          8.89631       11.26473        8.34302
H          7.16976       11.04492        8.66188
H          8.20036       11.85009        9.85527
C          8.92753       13.98976        8.17894
H          9.73656       13.56617        7.58673
H          9.29375       14.11533        9.19443
H          8.68001       14.97089        7.78088
N          2.76635       10.39381        6.07871
N          6.44101        9.25273        5.74819
N          5.09173       13.19349        6.89013
O          5.24780       12.84540        4.41750
Si         2.48540        9.21877        4.84972
H          3.82886        9.29440        4.16767
Si         6.88444        8.09089        6.93708
H          6.97377        8.83790        8.23311
Si         5.12137       14.17381        5.49589
