73
CSD_code = YILQUI | q = 0 | S = 0 | Stoichiometry = C26H42NScSi3 | MND = 8
Sc         6.04821        9.04243        7.01335
Si         2.52816        8.83769        7.12312
Si         7.88654        5.94063        6.83334
Si         7.09423        9.11506       10.92361
N          7.17918        9.52938        4.91187
C          6.21749        6.81622        6.92785
H          5.65305        6.37156        7.76220
H          5.65130        6.53196        6.02553
C          7.01951        9.85561        9.19876
C          2.16933        7.11835        6.35610
H          1.89899        7.20109        5.30821
H          1.35024        6.62044        6.86492
H          3.04055        6.47401        6.42278
C          8.08438        9.77831        8.25177
H          8.97787        9.17998        8.38961
C          0.90326        9.85507        7.04145
H          1.05009       10.84984        7.45115
H          0.10441        9.38250        7.60495
H          0.55909        9.97047        6.01819
C          6.16894       10.91609        8.74116
C          6.72409       11.45576        7.51896
C          6.12169       12.56824        6.90358
H          6.54521       12.98925        5.99924
C          5.01114       13.13172        7.48154
H          4.54509       13.99375        7.02553
C          8.25552       10.31284        4.79983
C          9.09276        6.89981        5.68426
H          8.70257        6.96795        4.67217
H         10.05837        6.40672        5.62651
H          9.26124        7.91226        6.04343
C          7.26839        9.11590        2.55566
H          6.84597        8.61939        1.69700
C          5.02796       11.52405        9.29332
H          4.61440       11.15300       10.21915
C          8.87955       10.53802        3.57324
H          9.74700       11.17912        3.52750
C          8.38310        9.93547        2.43550
H          8.85169       10.09537        1.47590
C          4.46943       12.61153        8.66797
H          3.59948       13.08888        9.09600
C          6.70855        8.94614        3.80665
H          5.84147        8.31019        3.94408
C          8.80628       10.95170        6.05094
H          8.93996       12.02236        5.86124
H          9.80074       10.53104        6.23869
C          6.36232       10.29135       12.24090
H          6.74208       10.04463       13.22779
H          5.28050       10.21980       12.28589
H          6.61773       11.32666       12.03908
C          4.02054        9.63225        6.28550
H          3.97341       10.72161        6.45457
H          3.93018        9.49462        5.19648
C          7.92152       10.73664        7.24131
C          8.93039        8.84333       11.39142
H          9.40040        8.07996       10.78012
H          9.01907        8.52518       12.42562
H          9.50640        9.75671       11.27872
C          2.96176        8.58562        8.97565
H          4.01722        8.31805        9.08067
H          2.36843        7.79936        9.43145
H          2.79071        9.49370        9.54416
C          7.79897        4.15786        6.12584
H          7.14297        3.53169        6.72268
H          8.77488        3.68192        6.10486
H          7.41316        4.15752        5.11056
C          8.70934        5.80852        8.55784
H          8.69143        6.76059        9.07894
H          9.74439        5.48939        8.48046
H          8.19334        5.08645        9.18257
C          6.17740        7.43708       11.04417
H          6.33902        6.82756       10.15855
H          5.10646        7.57729       11.15698
H          6.52079        6.86809       11.90299
